*HEADING
Voxel FE Sim
**
***************************************************************************
**
** Joël Chapuis & Marc Wirth, 08-Jul-2025 
** Include File: Damper.inc
** Description: Voxelized Matter FE Sim for Stratasys Materials
**
***************************************************************************
**
*Include, Input=Damper.inc
**
***************************************************************************
**                                                                       **
**   Element Sections                                                    **
**                                                                       **
***************************************************************************
**
** Section: SO_Mix_Agilus_VeroWhiteUltra_0ppm
*SOLID SECTION, ELSET=e_Mix_Agilus_VeroWhiteUltra_0ppm, controls=EC-1, MATERIAL = Mix_Agilus_VeroWhiteUltra_0ppm
,
** Section: SO_Mix_Agilus_VeroWhiteUltra_30900ppm
*SOLID SECTION, ELSET=e_Mix_Agilus_VeroWhiteUltra_30900ppm, controls=EC-1, MATERIAL = Mix_Agilus_VeroWhiteUltra_30900ppm
,
** Section: SO_Mix_Agilus_VeroWhiteUltra_61900ppm
*SOLID SECTION, ELSET=e_Mix_Agilus_VeroWhiteUltra_61900ppm, controls=EC-1, MATERIAL = Mix_Agilus_VeroWhiteUltra_61900ppm
,
** Section: SO_Mix_Agilus_VeroWhiteUltra_92800ppm
*SOLID SECTION, ELSET=e_Mix_Agilus_VeroWhiteUltra_92800ppm, controls=EC-1, MATERIAL = Mix_Agilus_VeroWhiteUltra_92800ppm
,
** Section: SO_Mix_Agilus_VeroWhiteUltra_123700ppm
*SOLID SECTION, ELSET=e_Mix_Agilus_VeroWhiteUltra_123700ppm, controls=EC-1, MATERIAL = Mix_Agilus_VeroWhiteUltra_123700ppm
,
** Section: SO_Mix_Agilus_VeroWhiteUltra_154600ppm
*SOLID SECTION, ELSET=e_Mix_Agilus_VeroWhiteUltra_154600ppm, controls=EC-1, MATERIAL = Mix_Agilus_VeroWhiteUltra_154600ppm
,
** Section: SO_Mix_Agilus_VeroWhiteUltra_185600ppm
*SOLID SECTION, ELSET=e_Mix_Agilus_VeroWhiteUltra_185600ppm, controls=EC-1, MATERIAL = Mix_Agilus_VeroWhiteUltra_185600ppm
,
** Section: SO_Mix_Agilus_VeroWhiteUltra_216500ppm
*SOLID SECTION, ELSET=e_Mix_Agilus_VeroWhiteUltra_216500ppm, controls=EC-1, MATERIAL = Mix_Agilus_VeroWhiteUltra_216500ppm
,
** Section: SO_Mix_Agilus_VeroWhiteUltra_247400ppm
*SOLID SECTION, ELSET=e_Mix_Agilus_VeroWhiteUltra_247400ppm, controls=EC-1, MATERIAL = Mix_Agilus_VeroWhiteUltra_247400ppm
,
** Section: SO_Mix_Agilus_VeroWhiteUltra_278300ppm
*SOLID SECTION, ELSET=e_Mix_Agilus_VeroWhiteUltra_278300ppm, controls=EC-1, MATERIAL = Mix_Agilus_VeroWhiteUltra_278300ppm
,
** Section: SO_Mix_Agilus_VeroWhiteUltra_309300ppm
*SOLID SECTION, ELSET=e_Mix_Agilus_VeroWhiteUltra_309300ppm, controls=EC-1, MATERIAL = Mix_Agilus_VeroWhiteUltra_309300ppm
,
** Section: SO_Mix_Agilus_VeroWhiteUltra_340200ppm
*SOLID SECTION, ELSET=e_Mix_Agilus_VeroWhiteUltra_340200ppm, controls=EC-1, MATERIAL = Mix_Agilus_VeroWhiteUltra_340200ppm
,
** Section: SO_Mix_Agilus_VeroWhiteUltra_371100ppm
*SOLID SECTION, ELSET=e_Mix_Agilus_VeroWhiteUltra_371100ppm, controls=EC-1, MATERIAL = Mix_Agilus_VeroWhiteUltra_371100ppm
,
** Section: SO_Mix_Agilus_VeroWhiteUltra_402000ppm
*SOLID SECTION, ELSET=e_Mix_Agilus_VeroWhiteUltra_402000ppm, controls=EC-1, MATERIAL = Mix_Agilus_VeroWhiteUltra_402000ppm
,
** Section: SO_Mix_Agilus_VeroWhiteUltra_433000ppm
*SOLID SECTION, ELSET=e_Mix_Agilus_VeroWhiteUltra_433000ppm, controls=EC-1, MATERIAL = Mix_Agilus_VeroWhiteUltra_433000ppm
,
** Section: SO_Mix_Agilus_VeroWhiteUltra_463900ppm
*SOLID SECTION, ELSET=e_Mix_Agilus_VeroWhiteUltra_463900ppm, controls=EC-1, MATERIAL = Mix_Agilus_VeroWhiteUltra_463900ppm
,
** Section: SO_Mix_Agilus_VeroWhiteUltra_494800ppm
*SOLID SECTION, ELSET=e_Mix_Agilus_VeroWhiteUltra_494800ppm, controls=EC-1, MATERIAL = Mix_Agilus_VeroWhiteUltra_494800ppm
,
** Section: SO_Mix_Agilus_VeroWhiteUltra_525700ppm
*SOLID SECTION, ELSET=e_Mix_Agilus_VeroWhiteUltra_525700ppm, controls=EC-1, MATERIAL = Mix_Agilus_VeroWhiteUltra_525700ppm
,
** Section: SO_Mix_Agilus_VeroWhiteUltra_556700ppm
*SOLID SECTION, ELSET=e_Mix_Agilus_VeroWhiteUltra_556700ppm, controls=EC-1, MATERIAL = Mix_Agilus_VeroWhiteUltra_556700ppm
,
** Section: SO_Mix_Agilus_VeroWhiteUltra_587600ppm
*SOLID SECTION, ELSET=e_Mix_Agilus_VeroWhiteUltra_587600ppm, controls=EC-1, MATERIAL = Mix_Agilus_VeroWhiteUltra_587600ppm
,
** Section: SO_Mix_Agilus_VeroWhiteUltra_618500ppm
*SOLID SECTION, ELSET=e_Mix_Agilus_VeroWhiteUltra_618500ppm, controls=EC-1, MATERIAL = Mix_Agilus_VeroWhiteUltra_618500ppm
,
** Section: SO_Mix_Agilus_VeroWhiteUltra_649400ppm
*SOLID SECTION, ELSET=e_Mix_Agilus_VeroWhiteUltra_649400ppm, controls=EC-1, MATERIAL = Mix_Agilus_VeroWhiteUltra_649400ppm
,
** Section: SO_Mix_Agilus_VeroWhiteUltra_680400ppm
*SOLID SECTION, ELSET=e_Mix_Agilus_VeroWhiteUltra_680400ppm, controls=EC-1, MATERIAL = Mix_Agilus_VeroWhiteUltra_680400ppm
,
** Section: SO_Mix_Agilus_VeroWhiteUltra_711300ppm
*SOLID SECTION, ELSET=e_Mix_Agilus_VeroWhiteUltra_711300ppm, controls=EC-1, MATERIAL = Mix_Agilus_VeroWhiteUltra_711300ppm
,
** Section: SO_Mix_Agilus_VeroWhiteUltra_742200ppm
*SOLID SECTION, ELSET=e_Mix_Agilus_VeroWhiteUltra_742200ppm, controls=EC-1, MATERIAL = Mix_Agilus_VeroWhiteUltra_742200ppm
,
** Section: SO_Mix_Agilus_VeroWhiteUltra_773100ppm
*SOLID SECTION, ELSET=e_Mix_Agilus_VeroWhiteUltra_773100ppm, controls=EC-1, MATERIAL = Mix_Agilus_VeroWhiteUltra_773100ppm
,
** Section: SO_Mix_Agilus_VeroWhiteUltra_804100ppm
*SOLID SECTION, ELSET=e_Mix_Agilus_VeroWhiteUltra_804100ppm, controls=EC-1, MATERIAL = Mix_Agilus_VeroWhiteUltra_804100ppm
,
** Section: SO_Mix_Agilus_VeroWhiteUltra_835000ppm
*SOLID SECTION, ELSET=e_Mix_Agilus_VeroWhiteUltra_835000ppm, controls=EC-1, MATERIAL = Mix_Agilus_VeroWhiteUltra_835000ppm
,
**
***************************************************************************
**                                                                       **
**   Element Controls                                                    **
**                                                                       **
***************************************************************************
**
*Section Controls, name=EC-1, hourglass=ENHANCED
1., 1., 1.
**
***************************************************************************
**                                                                       **
**   Materials                                                           **
**                                                                       **
***************************************************************************
**
*Material, name=VeroWhiteUltra
*Density
 1.180000e-09
*Depvar
  1,
*Expansion
 1.020000e-04, 4.000000e+01
 1.570000e-04, 8.000000e+01
*Hyperelastic, mooney-rivlin, test data input, moduli=LONG TERM, poisson=5.000e-01
*Uniaxial Test Data
 3.387520e-02, 4.000000e-03
 6.775040e-02, 8.000000e-03
 1.016256e-01, 1.200000e-02
 1.355008e-01, 1.600000e-02
 1.693760e-01, 2.000000e-02
 1.952503e-01, 2.333333e-02
 2.230253e-01, 2.666667e-02
 2.516479e-01, 3.000000e-02
 2.782976e-01, 3.333333e-02
 3.054181e-01, 3.666667e-02
 3.333660e-01, 4.000000e-02
 3.614434e-01, 4.333333e-02
 3.883160e-01, 4.666667e-02
 4.153619e-01, 5.000000e-02
 4.435475e-01, 5.333333e-02
 4.701584e-01, 5.666667e-02
 4.958524e-01, 6.000000e-02
 5.231369e-01, 6.333333e-02
 5.503133e-01, 6.666667e-02
 5.773017e-01, 7.000000e-02
** ... 9 like lines cut
*Viscoelastic, time=PRONY
 1.306583e-02, 0.000000e+00, 6.530000e-20
 9.596792e-03, 0.000000e+00, 7.380000e-19
 1.173392e-02, 0.000000e+00, 6.230000e-18
 1.694979e-02, 0.000000e+00, 3.810000e-17
 1.797405e-02, 0.000000e+00, 1.750000e-16
 1.322089e-02, 0.000000e+00, 9.040000e-16
 1.276014e-02, 0.000000e+00, 5.420000e-15
 1.610320e-02, 0.000000e+00, 3.330000e-14
 2.290619e-02, 0.000000e+00, 1.850000e-13
 2.797923e-02, 0.000000e+00, 1.050000e-12
 3.117554e-02, 0.000000e+00, 6.270000e-12
 3.718748e-02, 0.000000e+00, 4.000000e-11
 4.277409e-02, 0.000000e+00, 2.570000e-10
 4.711653e-02, 0.000000e+00, 1.570000e-09
 5.780350e-02, 0.000000e+00, 8.430000e-09
 7.327210e-02, 0.000000e+00, 3.830000e-08
 9.613596e-02, 0.000000e+00, 1.500000e-07
 9.928671e-02, 0.000000e+00, 5.660000e-07
 7.821860e-02, 0.000000e+00, 1.970000e-06
 6.460420e-02, 0.000000e+00, 7.300000e-06
** ... 11 like lines cut
*Trs, definition=USER
*Material, name=Agilus
*Density
 1.140000e-09
*Depvar
  1,
*Expansion
 1.020000e-04, 4.000000e+01
 1.570000e-04, 8.000000e+01
*Hyperelastic, mooney-rivlin, test data input, moduli=LONG TERM, poisson=5.000e-01
*Uniaxial Test Data
 1.200000e-03, 4.000000e-03
 2.400000e-03, 8.000000e-03
 3.600000e-03, 1.200000e-02
 4.800000e-03, 1.600000e-02
 6.000000e-03, 2.000000e-02
 6.791282e-03, 2.333333e-02
 7.937381e-03, 2.666667e-02
 9.773884e-03, 3.000000e-02
 1.125150e-02, 3.333333e-02
 1.188441e-02, 3.666667e-02
 1.261193e-02, 4.000000e-02
 1.407575e-02, 4.333333e-02
 1.580492e-02, 4.666667e-02
 1.681220e-02, 5.000000e-02
 1.830054e-02, 5.333333e-02
 1.953919e-02, 5.666667e-02
 1.986321e-02, 6.000000e-02
 2.075511e-02, 6.333333e-02
 2.175707e-02, 6.666667e-02
 2.315885e-02, 7.000000e-02
** ... 9 like lines cut
*Viscoelastic, time=PRONY
 6.699011e-02, 0.000000e+00, 1.980000e-12
 2.043012e-02, 0.000000e+00, 4.500000e-12
 4.223279e-02, 0.000000e+00, 8.740000e-12
 4.201268e-02, 0.000000e+00, 2.390000e-11
 5.064544e-02, 0.000000e+00, 6.570000e-11
 5.402699e-02, 0.000000e+00, 1.510000e-10
 5.331245e-02, 0.000000e+00, 3.370000e-10
 5.341537e-02, 0.000000e+00, 7.250000e-10
 5.403276e-02, 0.000000e+00, 1.610000e-09
 5.226224e-02, 0.000000e+00, 3.690000e-09
 4.711878e-02, 0.000000e+00, 9.110000e-09
 4.288666e-02, 0.000000e+00, 2.420000e-08
 4.371754e-02, 0.000000e+00, 6.380000e-08
 4.583567e-02, 0.000000e+00, 1.640000e-07
 4.578316e-02, 0.000000e+00, 4.110000e-07
 4.108623e-02, 0.000000e+00, 9.730000e-07
 3.872610e-02, 0.000000e+00, 2.170000e-06
 3.513419e-02, 0.000000e+00, 5.000000e-06
 2.844161e-02, 0.000000e+00, 1.100000e-05
 2.716971e-02, 0.000000e+00, 2.210000e-05
** ... 11 like lines cut
*Trs, definition=USER
*Material, name=EXP_Agilus_VeroWhiteUltra_666660ppm
*Density
 1.152200e-09
*Depvar
  1,
*Expansion
 1.020000e-04, 4.000000e+01
 1.570000e-04, 8.000000e+01
*Hyperelastic, mooney-rivlin, test data input, moduli=LONG TERM, poisson=5.000e-01
*Uniaxial Test Data
 1.250000e-03, 1.000000e-05
 1.180000e-03, 8.000000e-05
 8.500000e-04, 1.800000e-04
 3.370000e-03, 3.000000e-04
 1.330000e-03, 4.100000e-04
 2.660000e-03, 5.300000e-04
 2.890000e-03, 6.700000e-04
 3.750000e-03, 8.100000e-04
 4.750000e-03, 9.600000e-04
 4.990000e-03, 1.110000e-03
 5.350000e-03, 1.260000e-03
 6.770000e-03, 1.410000e-03
 5.330000e-03, 1.560000e-03
 6.290000e-03, 1.710000e-03
 7.470000e-03, 1.870000e-03
 6.250000e-03, 2.020000e-03
 9.320000e-03, 2.180000e-03
 1.021000e-02, 2.330000e-03
 8.230000e-03, 2.490000e-03
 1.101000e-02, 2.650000e-03
** ... 972 like lines cut
*Viscoelastic, time=PRONY
 5.208712e-02, 0.000000e+00, 1.060000e-16
 4.019943e-02, 0.000000e+00, 6.170000e-16
 4.350352e-02, 0.000000e+00, 3.850000e-15
 5.182202e-02, 0.000000e+00, 2.000000e-14
 5.802583e-02, 0.000000e+00, 1.030000e-13
 6.471299e-02, 0.000000e+00, 5.150000e-13
 6.745419e-02, 0.000000e+00, 2.470000e-12
 6.863131e-02, 0.000000e+00, 1.170000e-11
 6.642708e-02, 0.000000e+00, 5.380000e-11
 6.375869e-02, 0.000000e+00, 2.470000e-10
 6.295894e-02, 0.000000e+00, 1.060000e-09
 5.881001e-02, 0.000000e+00, 4.410000e-09
 5.490486e-02, 0.000000e+00, 1.760000e-08
 4.683525e-02, 0.000000e+00, 6.790000e-08
 3.663348e-02, 0.000000e+00, 2.570000e-07
 2.543298e-02, 0.000000e+00, 9.500000e-07
 1.716899e-02, 0.000000e+00, 3.230000e-06
 1.235042e-02, 0.000000e+00, 7.750000e-06
 1.290914e-02, 0.000000e+00, 1.770000e-05
 1.216037e-02, 0.000000e+00, 4.230000e-05
** ... 11 like lines cut
*Trs, definition=USER
*Material, name=EXP_Agilus_VeroWhiteUltra_333330ppm
*Density
 1.165500e-09
*Depvar
  1,
*Expansion
 1.020000e-04, 4.000000e+01
 1.570000e-04, 8.000000e+01
*Hyperelastic, mooney-rivlin, test data input, moduli=LONG TERM, poisson=5.000e-01
*Uniaxial Test Data
 3.690000e-03, 6.000000e-05
 5.080000e-03, 1.700000e-04
 4.370000e-03, 3.100000e-04
 4.500000e-03, 4.500000e-04
 9.160000e-03, 5.900000e-04
 6.230000e-03, 7.300000e-04
 8.600000e-03, 8.800000e-04
 9.480000e-03, 1.030000e-03
 9.710000e-03, 1.180000e-03
 1.193000e-02, 1.340000e-03
 1.168000e-02, 1.490000e-03
 1.286000e-02, 1.650000e-03
 1.455000e-02, 1.820000e-03
 1.319000e-02, 1.970000e-03
 1.676000e-02, 2.120000e-03
 1.612000e-02, 2.290000e-03
 1.768000e-02, 2.450000e-03
 1.819000e-02, 2.600000e-03
 1.761000e-02, 2.760000e-03
 2.060000e-02, 2.910000e-03
** ... 971 like lines cut
*Viscoelastic, time=PRONY
 2.030807e-02, 0.000000e+00, 2.710000e-20
 1.767046e-02, 0.000000e+00, 1.560000e-19
 1.697761e-02, 0.000000e+00, 8.780000e-19
 2.192602e-02, 0.000000e+00, 4.850000e-18
 2.506008e-02, 0.000000e+00, 2.490000e-17
 2.927288e-02, 0.000000e+00, 1.280000e-16
 3.299917e-02, 0.000000e+00, 6.360000e-16
 3.504137e-02, 0.000000e+00, 3.250000e-15
 3.548113e-02, 0.000000e+00, 1.700000e-14
 3.908807e-02, 0.000000e+00, 9.300000e-14
 4.144119e-02, 0.000000e+00, 5.030000e-13
 4.556507e-02, 0.000000e+00, 2.710000e-12
 4.737493e-02, 0.000000e+00, 1.470000e-11
 4.801150e-02, 0.000000e+00, 7.730000e-11
 4.961058e-02, 0.000000e+00, 4.040000e-10
 5.176995e-02, 0.000000e+00, 2.040000e-09
 5.645764e-02, 0.000000e+00, 9.620000e-09
 6.074982e-02, 0.000000e+00, 4.280000e-08
 6.279859e-02, 0.000000e+00, 1.800000e-07
 5.860156e-02, 0.000000e+00, 7.390000e-07
** ... 11 like lines cut
*Trs, definition=USER
*Material, name=EXP_Agilus_VeroWhiteUltra_500000ppm
*Density
 1.160000e-09
*Depvar
  1,
*Expansion
 1.020000e-04, 4.000000e+01
 1.570000e-04, 8.000000e+01
*Hyperelastic, mooney-rivlin, test data input, moduli=LONG TERM, poisson=5.000e-01
*Uniaxial Test Data
 3.690000e-03, 6.000000e-05
 5.080000e-03, 1.700000e-04
 4.370000e-03, 3.100000e-04
 4.500000e-03, 4.500000e-04
 9.160000e-03, 5.900000e-04
 6.230000e-03, 7.300000e-04
 8.600000e-03, 8.800000e-04
 9.480000e-03, 1.030000e-03
 9.710000e-03, 1.180000e-03
 1.193000e-02, 1.340000e-03
 1.168000e-02, 1.490000e-03
 1.286000e-02, 1.650000e-03
 1.455000e-02, 1.820000e-03
 1.319000e-02, 1.970000e-03
 1.676000e-02, 2.120000e-03
 1.612000e-02, 2.290000e-03
 1.768000e-02, 2.450000e-03
 1.819000e-02, 2.600000e-03
 1.761000e-02, 2.760000e-03
 2.060000e-02, 2.910000e-03
** ... 971 like lines cut
*Viscoelastic, time=PRONY
 3.100747e-02, 0.000000e+00, 1.600000e-21
 2.262450e-02, 0.000000e+00, 1.450000e-20
 2.178648e-02, 0.000000e+00, 1.520000e-19
 2.705580e-02, 0.000000e+00, 1.480000e-18
 3.282817e-02, 0.000000e+00, 1.150000e-17
 3.523161e-02, 0.000000e+00, 9.110000e-17
 3.972568e-02, 0.000000e+00, 6.810000e-16
 4.537660e-02, 0.000000e+00, 4.700000e-15
 4.589743e-02, 0.000000e+00, 3.150000e-14
 4.885603e-02, 0.000000e+00, 2.080000e-13
 5.412058e-02, 0.000000e+00, 1.320000e-12
 5.317621e-02, 0.000000e+00, 7.970000e-12
 5.259147e-02, 0.000000e+00, 4.980000e-11
 5.565394e-02, 0.000000e+00, 3.090000e-10
 5.435549e-02, 0.000000e+00, 1.800000e-09
 5.101302e-02, 0.000000e+00, 1.100000e-08
 5.085602e-02, 0.000000e+00, 6.820000e-08
 4.769093e-02, 0.000000e+00, 4.100000e-07
 4.321935e-02, 0.000000e+00, 2.610000e-06
 4.229960e-02, 0.000000e+00, 1.680000e-05
** ... 11 like lines cut
*Trs, definition=USER
*Material, name=EXP_Agilus_VeroWhiteUltra_835000ppm
*Density
 1.146600e-09
*Depvar
  1,
*Expansion
 1.020000e-04, 4.000000e+01
 1.570000e-04, 8.000000e+01
*Hyperelastic, mooney-rivlin, test data input, moduli=LONG TERM, poisson=5.000e-01
*Uniaxial Test Data
 1.995833e-03, 1.860610e-04
 -6.979170e-05, 2.042420e-04
 2.411460e-04, 2.787880e-04
 3.565625e-03, 3.942420e-04
 9.635420e-05, 5.084850e-04
 1.802080e-04, 6.512120e-04
 1.782813e-03, 8.642420e-04
 1.331250e-03, 1.124242e-03
 8.343750e-04, 1.318182e-03
 2.151563e-03, 1.489091e-03
 1.197396e-03, 1.634848e-03
 6.979170e-04, 1.794545e-03
 3.733854e-03, 1.936667e-03
 1.860417e-03, 2.104242e-03
 2.428125e-03, 2.251818e-03
 3.768229e-03, 2.425758e-03
 3.882292e-03, 2.582121e-03
 2.134896e-03, 2.726364e-03
 5.887500e-03, 2.873636e-03
 3.591146e-03, 3.014242e-03
** ... 640 like lines cut
*Viscoelastic, time=PRONY
 7.089741e-02, 0.000000e+00, 2.540000e-13
 5.330000e-05, 0.000000e+00, 4.070000e-13
 6.486820e-02, 0.000000e+00, 1.080000e-12
 5.224849e-02, 0.000000e+00, 3.960000e-12
 5.120822e-02, 0.000000e+00, 1.180000e-11
 5.120729e-02, 0.000000e+00, 3.510000e-11
 5.608220e-02, 0.000000e+00, 1.060000e-10
 5.762608e-02, 0.000000e+00, 3.380000e-10
 5.549610e-02, 0.000000e+00, 1.010000e-09
 5.024874e-02, 0.000000e+00, 2.770000e-09
 4.992168e-02, 0.000000e+00, 6.560000e-09
 6.246558e-02, 0.000000e+00, 1.910000e-08
 4.886623e-02, 0.000000e+00, 5.850000e-08
 4.440292e-02, 0.000000e+00, 1.520000e-07
 4.741447e-02, 0.000000e+00, 4.640000e-07
 3.915639e-02, 0.000000e+00, 1.470000e-06
 3.429231e-02, 0.000000e+00, 4.330000e-06
 2.904040e-02, 0.000000e+00, 1.230000e-05
 2.726461e-02, 0.000000e+00, 3.430000e-05
 2.157571e-02, 0.000000e+00, 9.660000e-05
** ... 11 like lines cut
*Trs, definition=USER
*Material, name=EXP_Agilus_VeroWhiteUltra_165000ppm
*Density
 1.173400e-09
*Depvar
  1,
*Expansion
 1.020000e-04, 4.000000e+01
 1.570000e-04, 8.000000e+01
*Hyperelastic, mooney-rivlin, test data input, moduli=LONG TERM, poisson=5.000e-01
*Uniaxial Test Data
 2.564063e-03, 3.900000e-04
 1.880000e-03, 3.927270e-04
 2.019792e-03, 4.390910e-04
 4.073438e-03, 5.766670e-04
 5.276042e-03, 7.348480e-04
 4.810938e-03, 9.003030e-04
 9.159375e-03, 1.056667e-03
 8.407292e-03, 1.187576e-03
 9.066146e-03, 1.341515e-03
 1.086667e-02, 1.462121e-03
 1.044375e-02, 1.619697e-03
 1.210208e-02, 1.750909e-03
 1.339010e-02, 1.881212e-03
 1.326875e-02, 2.032424e-03
 1.627292e-02, 2.180000e-03
 1.495156e-02, 2.330606e-03
 1.742448e-02, 2.475152e-03
 1.860833e-02, 2.632727e-03
 1.808542e-02, 2.789697e-03
 2.258542e-02, 2.951818e-03
** ... 598 like lines cut
*Viscoelastic, time=PRONY
 1.807909e-02, 0.000000e+00, 1.820000e-19
 1.479548e-02, 0.000000e+00, 7.790000e-19
 1.370890e-02, 0.000000e+00, 2.950000e-18
 1.048799e-02, 0.000000e+00, 8.850000e-18
 1.572936e-02, 0.000000e+00, 2.670000e-17
 2.264279e-02, 0.000000e+00, 1.260000e-16
 2.700004e-02, 0.000000e+00, 7.280000e-16
 3.142120e-02, 0.000000e+00, 4.330000e-15
 3.964185e-02, 0.000000e+00, 2.930000e-14
 4.859069e-02, 0.000000e+00, 2.390000e-13
 5.406862e-02, 0.000000e+00, 2.090000e-12
 5.944186e-02, 0.000000e+00, 1.840000e-11
 6.395248e-02, 0.000000e+00, 1.600000e-10
 6.589912e-02, 0.000000e+00, 1.330000e-09
 6.661100e-02, 0.000000e+00, 9.740000e-09
 6.624512e-02, 0.000000e+00, 6.050000e-08
 6.536436e-02, 0.000000e+00, 3.160000e-07
 6.011876e-02, 0.000000e+00, 1.410000e-06
 5.358102e-02, 0.000000e+00, 5.480000e-06
 5.009011e-02, 0.000000e+00, 2.150000e-05
** ... 11 like lines cut
*Trs, definition=USER
*Material, name=Mix_Agilus_VeroWhiteUltra_0ppm
*Density
 1.180000e-09
*Depvar
  1,
*Expansion
 1.020000e-04, 4.000000e+01
 1.570000e-04, 8.000000e+01
*Hyperelastic, mooney-rivlin, test data input, moduli=LONG TERM, poisson=5.000e-01
*Uniaxial Test Data
 3.347520e-02, 4.000000e-03
 6.695041e-02, 8.000000e-03
 1.004256e-01, 1.200000e-02
 1.339008e-01, 1.600000e-02
 1.673760e-01, 2.000000e-02
 1.929432e-01, 2.333333e-02
 2.203923e-01, 2.666667e-02
 2.486870e-01, 3.000000e-02
 2.750285e-01, 3.333333e-02
 3.018248e-01, 3.666667e-02
 3.294395e-01, 4.000000e-02
 3.571911e-01, 4.333333e-02
 3.837559e-01, 4.666667e-02
 4.104830e-01, 5.000000e-02
 4.383418e-01, 5.333333e-02
 4.646421e-01, 5.666667e-02
 4.900255e-01, 6.000000e-02
 5.169869e-01, 6.333333e-02
 5.438429e-01, 6.666667e-02
 5.705181e-01, 7.000000e-02
** ... 9 like lines cut
*Viscoelastic, time=PRONY
 2.650133e-08, 0.000000e+00, 6.939986e-29
 8.061990e-11, 0.000000e+00, 5.653767e-25
 7.371042e-08, 0.000000e+00, 2.701130e-23
 2.485435e-05, 0.000000e+00, 4.370994e-26
 3.693971e-07, 0.000000e+00, 4.370980e-25
 4.794339e-07, 0.000000e+00, 4.371572e-24
 3.466244e-07, 0.000000e+00, 2.061949e-21
 1.061491e-07, 0.000000e+00, 8.473093e-22
 2.565282e-02, 0.000000e+00, 8.160952e-20
 9.931775e-08, 0.000000e+00, 4.478521e-20
 4.536940e-02, 0.000000e+00, 1.414601e-14
 5.091920e-02, 0.000000e+00, 1.044667e-16
 5.112722e-02, 0.000000e+00, 1.314671e-12
 6.557894e-02, 0.000000e+00, 3.492793e-11
 3.931511e-02, 0.000000e+00, 2.357116e-10
 4.392483e-07, 0.000000e+00, 4.384180e-14
 2.313163e-01, 0.000000e+00, 6.091208e-08
 1.092525e-09, 0.000000e+00, 4.722732e-09
 1.235673e-06, 0.000000e+00, 4.426243e-11
 2.128159e-01, 0.000000e+00, 3.880569e-06
** ... 11 like lines cut
*Trs, definition=USER
*Material, name=Mix_Agilus_VeroWhiteUltra_30900ppm
*Density
 1.178764e-09
*Depvar
  1,
*Expansion
 1.020000e-04, 4.000000e+01
 1.570000e-04, 8.000000e+01
*Hyperelastic, mooney-rivlin, test data input, moduli=LONG TERM, poisson=5.000e-01
*Uniaxial Test Data
 3.234277e-02, 4.000000e-03
 6.468554e-02, 8.000000e-03
 9.702831e-02, 1.200000e-02
 1.293711e-01, 1.600000e-02
 1.617138e-01, 2.000000e-02
 1.864118e-01, 2.333333e-02
 2.129379e-01, 2.666667e-02
 2.403043e-01, 3.000000e-02
 2.657734e-01, 3.333333e-02
 2.916517e-01, 3.666667e-02
 3.183230e-01, 4.000000e-02
 3.451522e-01, 4.333333e-02
 3.708457e-01, 4.666667e-02
 3.966703e-01, 5.000000e-02
 4.236039e-01, 5.333333e-02
 4.490249e-01, 5.666667e-02
 4.735291e-01, 6.000000e-02
 4.995757e-01, 6.333333e-02
 5.255246e-01, 6.666667e-02
 5.513130e-01, 7.000000e-02
** ... 9 like lines cut
*Viscoelastic, time=PRONY
 6.010657e-08, 0.000000e+00, 2.691963e-23
 1.282266e-01, 0.000000e+00, 5.520557e-28
 1.766865e-01, 0.000000e+00, 5.521515e-27
 5.489443e-04, 0.000000e+00, 5.520385e-26
 4.059391e-08, 0.000000e+00, 5.563198e-25
 4.408145e-08, 0.000000e+00, 5.520398e-24
 2.931626e-03, 0.000000e+00, 2.173823e-22
 1.935342e-02, 0.000000e+00, 5.990986e-19
 6.007246e-06, 0.000000e+00, 5.520381e-21
 2.394272e-02, 0.000000e+00, 3.438633e-17
 2.835593e-02, 0.000000e+00, 1.027335e-15
 2.829562e-02, 0.000000e+00, 8.586340e-14
 2.911347e-02, 0.000000e+00, 1.059533e-12
 3.450862e-02, 0.000000e+00, 1.591899e-11
 3.876991e-02, 0.000000e+00, 1.792053e-10
 4.786139e-02, 0.000000e+00, 2.198685e-09
 7.392507e-02, 0.000000e+00, 2.372931e-08
 1.078651e-01, 0.000000e+00, 2.530752e-07
 6.830465e-02, 0.000000e+00, 1.628416e-06
 6.809978e-02, 0.000000e+00, 8.788060e-06
** ... 11 like lines cut
*Trs, definition=USER
*Material, name=Mix_Agilus_VeroWhiteUltra_61900ppm
*Density
 1.177524e-09
*Depvar
  1,
*Expansion
 1.020000e-04, 4.000000e+01
 1.570000e-04, 8.000000e+01
*Hyperelastic, mooney-rivlin, test data input, moduli=LONG TERM, poisson=5.000e-01
*Uniaxial Test Data
 3.130027e-02, 4.000000e-03
 6.260054e-02, 8.000000e-03
 9.390080e-02, 1.200000e-02
 1.252011e-01, 1.600000e-02
 1.565013e-01, 2.000000e-02
 1.803990e-01, 2.333333e-02
 2.060755e-01, 2.666667e-02
 2.325873e-01, 3.000000e-02
 2.572533e-01, 3.333333e-02
 2.822866e-01, 3.666667e-02
 3.080894e-01, 4.000000e-02
 3.340695e-01, 4.333333e-02
 3.589607e-01, 4.666667e-02
 3.839546e-01, 5.000000e-02
 4.100364e-01, 5.333333e-02
 4.346479e-01, 5.666667e-02
 4.583426e-01, 6.000000e-02
 4.835473e-01, 6.333333e-02
 5.086610e-01, 6.666667e-02
 5.336331e-01, 7.000000e-02
** ... 9 like lines cut
*Viscoelastic, time=PRONY
 6.437770e-06, 0.000000e+00, 7.272801e-29
 7.603830e-07, 0.000000e+00, 1.496197e-24
 5.658262e-08, 0.000000e+00, 7.282768e-27
 2.182823e-07, 0.000000e+00, 4.590092e-22
 2.016596e-06, 0.000000e+00, 7.070333e-25
 4.221079e-08, 0.000000e+00, 1.162371e-23
 1.553181e-02, 0.000000e+00, 1.267326e-20
 1.153765e-11, 0.000000e+00, 7.070303e-22
 4.513199e-02, 0.000000e+00, 3.392239e-18
 1.179253e-06, 0.000000e+00, 3.336198e-16
 4.662659e-02, 0.000000e+00, 5.948831e-15
 3.541180e-02, 0.000000e+00, 6.279392e-16
 9.603522e-02, 0.000000e+00, 1.619196e-12
 1.093281e-12, 0.000000e+00, 7.108924e-16
 1.233633e-01, 0.000000e+00, 2.523555e-10
 7.557517e-07, 0.000000e+00, 2.208368e-09
 1.281845e-01, 0.000000e+00, 2.087859e-08
 1.965977e-01, 0.000000e+00, 3.383369e-07
 3.219232e-05, 0.000000e+00, 1.856733e-06
 1.291905e-13, 0.000000e+00, 1.033470e-09
** ... 11 like lines cut
*Trs, definition=USER
*Material, name=Mix_Agilus_VeroWhiteUltra_92800ppm
*Density
 1.176288e-09
*Depvar
  1,
*Expansion
 1.020000e-04, 4.000000e+01
 1.570000e-04, 8.000000e+01
*Hyperelastic, mooney-rivlin, test data input, moduli=LONG TERM, poisson=5.000e-01
*Uniaxial Test Data
 3.033651e-02, 4.000000e-03
 6.067302e-02, 8.000000e-03
 9.100953e-02, 1.200000e-02
 1.213460e-01, 1.600000e-02
 1.516825e-01, 2.000000e-02
 1.748404e-01, 2.333333e-02
 1.997315e-01, 2.666667e-02
 2.254532e-01, 3.000000e-02
 2.493768e-01, 3.333333e-02
 2.736287e-01, 3.666667e-02
 2.986287e-01, 4.000000e-02
 3.238238e-01, 4.333333e-02
 3.479734e-01, 4.666667e-02
 3.721993e-01, 5.000000e-02
 3.974937e-01, 5.333333e-02
 4.213568e-01, 5.666667e-02
 4.443033e-01, 6.000000e-02
 4.687294e-01, 6.333333e-02
 4.930712e-01, 6.666667e-02
 5.172886e-01, 7.000000e-02
** ... 9 like lines cut
*Viscoelastic, time=PRONY
 1.035392e-07, 0.000000e+00, 9.185075e-29
 1.358480e-07, 0.000000e+00, 3.073764e-23
 3.564482e-07, 0.000000e+00, 3.945468e-23
 4.945070e-02, 0.000000e+00, 9.176129e-26
 1.399177e-07, 0.000000e+00, 9.183927e-25
 8.759366e-08, 0.000000e+00, 5.752554e-22
 1.398444e-06, 0.000000e+00, 9.179199e-23
 4.716478e-02, 0.000000e+00, 2.284036e-17
 2.730798e-02, 0.000000e+00, 9.707394e-20
 7.546660e-02, 0.000000e+00, 2.858882e-15
 2.670520e-09, 0.000000e+00, 9.214420e-19
 8.176392e-10, 0.000000e+00, 9.242834e-18
 6.767604e-02, 0.000000e+00, 1.818245e-12
 1.186120e-01, 0.000000e+00, 4.179101e-11
 1.934162e-10, 0.000000e+00, 9.198086e-15
 1.158257e-12, 0.000000e+00, 9.196646e-14
 1.660576e-01, 0.000000e+00, 2.778803e-08
 1.014800e-01, 0.000000e+00, 2.322333e-07
 1.416520e-01, 0.000000e+00, 2.651117e-06
 4.814557e-02, 0.000000e+00, 1.771684e-05
** ... 11 like lines cut
*Trs, definition=USER
*Material, name=Mix_Agilus_VeroWhiteUltra_123700ppm
*Density
 1.175052e-09
*Depvar
  1,
*Expansion
 1.020000e-04, 4.000000e+01
 1.570000e-04, 8.000000e+01
*Hyperelastic, mooney-rivlin, test data input, moduli=LONG TERM, poisson=5.000e-01
*Uniaxial Test Data
 2.941935e-02, 4.000000e-03
 5.883870e-02, 8.000000e-03
 8.825805e-02, 1.200000e-02
 1.176774e-01, 1.600000e-02
 1.470967e-01, 2.000000e-02
 1.695505e-01, 2.333333e-02
 1.936942e-01, 2.666667e-02
 2.186641e-01, 3.000000e-02
 2.418811e-01, 3.333333e-02
 2.653895e-01, 3.666667e-02
 2.896254e-01, 4.000000e-02
 3.140736e-01, 4.333333e-02
 3.375174e-01, 4.666667e-02
 3.610125e-01, 5.000000e-02
 3.855574e-01, 5.333333e-02
 4.087084e-01, 5.666667e-02
 4.309427e-01, 6.000000e-02
 4.546281e-01, 6.333333e-02
 4.782352e-01, 6.666667e-02
 5.017344e-01, 7.000000e-02
** ... 9 like lines cut
*Viscoelastic, time=PRONY
 1.336651e-04, 0.000000e+00, 1.865944e-28
 3.357798e-04, 0.000000e+00, 4.613465e-26
 5.232642e-05, 0.000000e+00, 1.690849e-25
 7.331697e-03, 0.000000e+00, 1.209365e-25
 2.318595e-07, 0.000000e+00, 1.969909e-24
 3.806545e-09, 0.000000e+00, 1.209167e-23
 2.646165e-06, 0.000000e+00, 1.209257e-22
 2.830325e-03, 0.000000e+00, 1.243701e-21
 1.838128e-02, 0.000000e+00, 1.224806e-20
 2.998426e-02, 0.000000e+00, 1.464985e-16
 4.993515e-02, 0.000000e+00, 4.663213e-15
 5.557620e-02, 0.000000e+00, 1.212606e-17
 7.201895e-02, 0.000000e+00, 2.744535e-13
 7.676122e-02, 0.000000e+00, 1.119999e-11
 7.876269e-02, 0.000000e+00, 4.063151e-10
 8.142174e-02, 0.000000e+00, 5.837982e-09
 8.189714e-02, 0.000000e+00, 5.468680e-08
 7.639438e-02, 0.000000e+00, 3.712019e-07
 6.732101e-02, 0.000000e+00, 2.420713e-06
 5.443619e-02, 0.000000e+00, 2.138162e-05
** ... 11 like lines cut
*Trs, definition=USER
*Material, name=Mix_Agilus_VeroWhiteUltra_154600ppm
*Density
 1.173816e-09
*Depvar
  1,
*Expansion
 1.020000e-04, 4.000000e+01
 1.570000e-04, 8.000000e+01
*Hyperelastic, mooney-rivlin, test data input, moduli=LONG TERM, poisson=5.000e-01
*Uniaxial Test Data
 2.851856e-02, 4.000000e-03
 5.703713e-02, 8.000000e-03
 8.555569e-02, 1.200000e-02
 1.140743e-01, 1.600000e-02
 1.425928e-01, 2.000000e-02
 1.643551e-01, 2.333333e-02
 1.877647e-01, 2.666667e-02
 2.119961e-01, 3.000000e-02
 2.345192e-01, 3.333333e-02
 2.572974e-01, 3.666667e-02
 2.807829e-01, 4.000000e-02
 3.044974e-01, 4.333333e-02
 3.272481e-01, 4.666667e-02
 3.500253e-01, 5.000000e-02
 3.738343e-01, 5.333333e-02
 3.962857e-01, 5.666667e-02
 4.178207e-01, 6.000000e-02
 4.407785e-01, 6.333333e-02
 4.636640e-01, 6.666667e-02
 4.864578e-01, 7.000000e-02
** ... 9 like lines cut
*Viscoelastic, time=PRONY
 1.015559e-06, 0.000000e+00, 6.298705e-24
 1.403926e-02, 0.000000e+00, 3.161965e-27
 2.583962e-07, 0.000000e+00, 1.285198e-22
 4.044397e-07, 0.000000e+00, 4.013321e-25
 3.237312e-09, 0.000000e+00, 9.681858e-23
 9.395926e-09, 0.000000e+00, 1.539336e-21
 1.213853e-02, 0.000000e+00, 7.828087e-21
 4.061112e-02, 0.000000e+00, 7.997238e-19
 1.557407e-06, 0.000000e+00, 1.532547e-17
 2.493667e-09, 0.000000e+00, 1.071087e-15
 7.752983e-02, 0.000000e+00, 1.684695e-16
 5.790811e-02, 0.000000e+00, 2.660347e-14
 4.410878e-02, 0.000000e+00, 2.753855e-13
 6.004196e-02, 0.000000e+00, 5.141087e-12
 2.860355e-02, 0.000000e+00, 2.504995e-11
 7.971087e-02, 0.000000e+00, 3.151125e-10
 9.320216e-02, 0.000000e+00, 7.569785e-09
 1.272417e-01, 0.000000e+00, 1.222016e-07
 1.146883e-01, 0.000000e+00, 1.388845e-06
 7.520251e-02, 0.000000e+00, 8.394116e-06
** ... 11 like lines cut
*Trs, definition=USER
*Material, name=Mix_Agilus_VeroWhiteUltra_185600ppm
*Density
 1.172576e-09
*Depvar
  1,
*Expansion
 1.020000e-04, 4.000000e+01
 1.570000e-04, 8.000000e+01
*Hyperelastic, mooney-rivlin, test data input, moduli=LONG TERM, poisson=5.000e-01
*Uniaxial Test Data
 2.760553e-02, 4.000000e-03
 5.521106e-02, 8.000000e-03
 8.281659e-02, 1.200000e-02
 1.104221e-01, 1.600000e-02
 1.380277e-01, 2.000000e-02
 1.590890e-01, 2.333333e-02
 1.817545e-01, 2.666667e-02
 2.052375e-01, 3.000000e-02
 2.270572e-01, 3.333333e-02
 2.490953e-01, 3.666667e-02
 2.718202e-01, 4.000000e-02
 2.947910e-01, 4.333333e-02
 3.168391e-01, 4.666667e-02
 3.388887e-01, 5.000000e-02
 3.619517e-01, 5.333333e-02
 3.836942e-01, 5.666667e-02
 4.045203e-01, 6.000000e-02
 4.267406e-01, 6.333333e-02
 4.488947e-01, 6.666667e-02
 4.709736e-01, 7.000000e-02
** ... 9 like lines cut
*Viscoelastic, time=PRONY
 8.026290e-09, 0.000000e+00, 5.528701e-28
 6.320604e-11, 0.000000e+00, 3.809635e-26
 1.805704e-09, 0.000000e+00, 1.421718e-25
 4.255779e-11, 0.000000e+00, 1.350149e-21
 1.322039e-08, 0.000000e+00, 2.206253e-24
 2.438842e-02, 0.000000e+00, 4.206438e-20
 3.712604e-08, 0.000000e+00, 1.105083e-17
 3.806603e-02, 0.000000e+00, 3.017556e-18
 3.238297e-02, 0.000000e+00, 6.265409e-17
 5.860112e-02, 0.000000e+00, 7.909031e-16
 1.229672e-02, 0.000000e+00, 1.836377e-14
 5.314463e-02, 0.000000e+00, 4.735898e-14
 5.231123e-02, 0.000000e+00, 8.589489e-13
 5.938971e-02, 0.000000e+00, 8.348890e-12
 6.411536e-02, 0.000000e+00, 1.382481e-10
 6.760957e-02, 0.000000e+00, 1.605844e-09
 9.044128e-02, 0.000000e+00, 2.101130e-08
 1.091029e-01, 0.000000e+00, 2.285374e-07
 1.116714e-01, 0.000000e+00, 1.885388e-06
 8.493186e-02, 0.000000e+00, 1.559616e-05
** ... 11 like lines cut
*Trs, definition=USER
*Material, name=Mix_Agilus_VeroWhiteUltra_216500ppm
*Density
 1.171340e-09
*Depvar
  1,
*Expansion
 1.020000e-04, 4.000000e+01
 1.570000e-04, 8.000000e+01
*Hyperelastic, mooney-rivlin, test data input, moduli=LONG TERM, poisson=5.000e-01
*Uniaxial Test Data
 2.667046e-02, 4.000000e-03
 5.334093e-02, 8.000000e-03
 8.001139e-02, 1.200000e-02
 1.066819e-01, 1.600000e-02
 1.333523e-01, 2.000000e-02
 1.536959e-01, 2.333333e-02
 1.755994e-01, 2.666667e-02
 1.983158e-01, 3.000000e-02
 2.194151e-01, 3.333333e-02
 2.406953e-01, 3.666667e-02
 2.626412e-01, 4.000000e-02
 2.848504e-01, 4.333333e-02
 3.061790e-01, 4.666667e-02
 3.274834e-01, 5.000000e-02
 3.497824e-01, 5.333333e-02
 3.707989e-01, 5.666667e-02
 3.908989e-01, 6.000000e-02
 4.123639e-01, 6.333333e-02
 4.337690e-01, 6.666667e-02
 4.551157e-01, 7.000000e-02
** ... 9 like lines cut
*Viscoelastic, time=PRONY
 2.790363e-06, 0.000000e+00, 2.080364e-23
 3.309132e-08, 0.000000e+00, 1.150769e-24
 2.573782e-12, 0.000000e+00, 3.065165e-26
 1.595458e-10, 0.000000e+00, 3.060863e-25
 1.506317e-06, 0.000000e+00, 2.995962e-23
 2.019086e-03, 0.000000e+00, 8.683129e-22
 1.352288e-06, 0.000000e+00, 4.534048e-19
 3.409925e-02, 0.000000e+00, 1.831665e-18
 2.265823e-02, 0.000000e+00, 5.863544e-20
 6.559061e-02, 0.000000e+00, 1.263200e-15
 4.561076e-02, 0.000000e+00, 5.055933e-17
 6.951664e-02, 0.000000e+00, 5.363471e-14
 7.905897e-02, 0.000000e+00, 1.898594e-12
 5.939635e-02, 0.000000e+00, 3.314446e-11
 6.505668e-02, 0.000000e+00, 3.816039e-10
 7.240127e-02, 0.000000e+00, 5.168557e-09
 9.287511e-02, 0.000000e+00, 5.426289e-08
 1.109363e-01, 0.000000e+00, 5.770801e-07
 9.773559e-02, 0.000000e+00, 4.691093e-06
 4.189426e-02, 0.000000e+00, 2.727899e-05
** ... 11 like lines cut
*Trs, definition=USER
*Material, name=Mix_Agilus_VeroWhiteUltra_247400ppm
*Density
 1.170104e-09
*Depvar
  1,
*Expansion
 1.020000e-04, 4.000000e+01
 1.570000e-04, 8.000000e+01
*Hyperelastic, mooney-rivlin, test data input, moduli=LONG TERM, poisson=5.000e-01
*Uniaxial Test Data
 2.570469e-02, 4.000000e-03
 5.140937e-02, 8.000000e-03
 7.711406e-02, 1.200000e-02
 1.028187e-01, 1.600000e-02
 1.285234e-01, 2.000000e-02
 1.481256e-01, 2.333333e-02
 1.692420e-01, 2.666667e-02
 1.911667e-01, 3.000000e-02
 2.115221e-01, 3.333333e-02
 2.320193e-01, 3.666667e-02
 2.531607e-01, 4.000000e-02
 2.745833e-01, 4.333333e-02
 2.951687e-01, 4.666667e-02
 3.157035e-01, 5.000000e-02
 3.372134e-01, 5.333333e-02
 3.574799e-01, 5.666667e-02
 3.768301e-01, 6.000000e-02
 3.975151e-01, 6.333333e-02
 4.181465e-01, 6.666667e-02
 4.387369e-01, 7.000000e-02
** ... 9 like lines cut
*Viscoelastic, time=PRONY
 5.879268e-06, 0.000000e+00, 8.158244e-24
 2.134429e-03, 0.000000e+00, 8.669552e-23
 3.175829e-12, 0.000000e+00, 4.333024e-26
 1.543500e-10, 0.000000e+00, 4.498153e-21
 1.881322e-02, 0.000000e+00, 3.679278e-20
 5.863034e-11, 0.000000e+00, 2.199313e-20
 1.773164e-07, 0.000000e+00, 4.332322e-22
 2.653090e-06, 0.000000e+00, 3.900691e-20
 6.170101e-03, 0.000000e+00, 2.318122e-16
 4.323279e-02, 0.000000e+00, 1.383442e-18
 1.412705e-02, 0.000000e+00, 4.053805e-15
 6.496095e-02, 0.000000e+00, 1.078325e-16
 7.081655e-02, 0.000000e+00, 9.062163e-15
 8.764986e-02, 0.000000e+00, 5.115827e-13
 9.071634e-02, 0.000000e+00, 1.875398e-11
 7.747233e-02, 0.000000e+00, 5.595706e-10
 8.399805e-02, 0.000000e+00, 9.651305e-09
 1.058788e-01, 0.000000e+00, 1.380085e-07
 1.162265e-01, 0.000000e+00, 1.638682e-06
 9.662628e-02, 0.000000e+00, 2.062730e-05
** ... 11 like lines cut
*Trs, definition=USER
*Material, name=Mix_Agilus_VeroWhiteUltra_278300ppm
*Density
 1.168868e-09
*Depvar
  1,
*Expansion
 1.020000e-04, 4.000000e+01
 1.570000e-04, 8.000000e+01
*Hyperelastic, mooney-rivlin, test data input, moduli=LONG TERM, poisson=5.000e-01
*Uniaxial Test Data
 2.471098e-02, 4.000000e-03
 4.942197e-02, 8.000000e-03
 7.413295e-02, 1.200000e-02
 9.884393e-02, 1.600000e-02
 1.235549e-01, 2.000000e-02
 1.423943e-01, 2.333333e-02
 1.627009e-01, 2.666667e-02
 1.838110e-01, 3.000000e-02
 2.034008e-01, 3.333333e-02
 2.230925e-01, 3.666667e-02
 2.434061e-01, 4.000000e-02
 2.640193e-01, 4.333333e-02
 2.838401e-01, 4.666667e-02
 3.035830e-01, 5.000000e-02
 3.242810e-01, 5.333333e-02
 3.437759e-01, 5.666667e-02
 3.623546e-01, 6.000000e-02
 3.822369e-01, 6.333333e-02
 4.020723e-01, 6.666667e-02
 4.218846e-01, 7.000000e-02
** ... 9 like lines cut
*Viscoelastic, time=PRONY
 4.034690e-06, 0.000000e+00, 1.809150e-23
 7.961608e-07, 0.000000e+00, 9.328369e-27
 9.322480e-11, 0.000000e+00, 2.788367e-25
 3.222232e-12, 0.000000e+00, 6.266284e-25
 3.116156e-02, 0.000000e+00, 7.425032e-20
 1.105883e-10, 0.000000e+00, 6.267310e-23
 5.445988e-14, 0.000000e+00, 6.270128e-22
 2.473266e-11, 0.000000e+00, 6.266287e-21
 3.287308e-02, 0.000000e+00, 3.261452e-18
 2.345311e-02, 0.000000e+00, 3.629129e-17
 1.111579e-02, 0.000000e+00, 3.677843e-17
 6.774175e-02, 0.000000e+00, 6.304136e-16
 6.731800e-02, 0.000000e+00, 1.595659e-14
 7.467969e-02, 0.000000e+00, 4.427446e-13
 9.293066e-02, 0.000000e+00, 1.317161e-10
 6.556692e-02, 0.000000e+00, 6.521808e-12
 9.711787e-02, 0.000000e+00, 5.139465e-09
 1.017690e-01, 0.000000e+00, 1.109461e-07
 1.081297e-01, 0.000000e+00, 1.257044e-06
 9.317219e-02, 0.000000e+00, 1.367689e-05
** ... 11 like lines cut
*Trs, definition=USER
*Material, name=Mix_Agilus_VeroWhiteUltra_309300ppm
*Density
 1.167628e-09
*Depvar
  1,
*Expansion
 1.020000e-04, 4.000000e+01
 1.570000e-04, 8.000000e+01
*Hyperelastic, mooney-rivlin, test data input, moduli=LONG TERM, poisson=5.000e-01
*Uniaxial Test Data
 2.369205e-02, 4.000000e-03
 4.738411e-02, 8.000000e-03
 7.107616e-02, 1.200000e-02
 9.476821e-02, 1.600000e-02
 1.184603e-01, 2.000000e-02
 1.365175e-01, 2.333333e-02
 1.559937e-01, 2.666667e-02
 1.762685e-01, 3.000000e-02
 1.950733e-01, 3.333333e-02
 2.139391e-01, 3.666667e-02
 2.334038e-01, 4.000000e-02
 2.531871e-01, 4.333333e-02
 2.722238e-01, 4.666667e-02
 2.911548e-01, 5.000000e-02
 3.110203e-01, 5.333333e-02
 3.297240e-01, 5.666667e-02
 3.475115e-01, 6.000000e-02
 3.665708e-01, 6.333333e-02
 3.855900e-01, 6.666667e-02
 4.046044e-01, 7.000000e-02
** ... 9 like lines cut
*Viscoelastic, time=PRONY
 2.094350e-02, 0.000000e+00, 9.292056e-28
 4.236645e-10, 0.000000e+00, 2.252719e-21
 7.755164e-09, 0.000000e+00, 9.389157e-26
 2.489374e-10, 0.000000e+00, 4.948173e-20
 1.062431e-09, 0.000000e+00, 9.292987e-24
 1.732738e-02, 0.000000e+00, 5.718403e-20
 1.258464e-02, 0.000000e+00, 2.618487e-19
 2.145574e-02, 0.000000e+00, 1.614111e-18
 2.815995e-02, 0.000000e+00, 1.537313e-17
 5.570450e-02, 0.000000e+00, 9.305879e-16
 2.691118e-03, 0.000000e+00, 9.303905e-18
 3.046953e-02, 0.000000e+00, 9.292014e-17
 6.727586e-02, 0.000000e+00, 1.469053e-14
 7.609271e-02, 0.000000e+00, 3.759625e-13
 7.998199e-02, 0.000000e+00, 7.663124e-12
 7.194295e-02, 0.000000e+00, 1.330012e-10
 7.065281e-02, 0.000000e+00, 2.215877e-09
 8.318846e-02, 0.000000e+00, 3.207888e-08
 9.576546e-02, 0.000000e+00, 3.998348e-07
 9.127847e-02, 0.000000e+00, 4.041052e-06
** ... 11 like lines cut
*Trs, definition=USER
*Material, name=Mix_Agilus_VeroWhiteUltra_340200ppm
*Density
 1.166392e-09
*Depvar
  1,
*Expansion
 1.020000e-04, 4.000000e+01
 1.570000e-04, 8.000000e+01
*Hyperelastic, mooney-rivlin, test data input, moduli=LONG TERM, poisson=5.000e-01
*Uniaxial Test Data
 2.266365e-02, 4.000000e-03
 4.532730e-02, 8.000000e-03
 6.799095e-02, 1.200000e-02
 9.065460e-02, 1.600000e-02
 1.133182e-01, 2.000000e-02
 1.305860e-01, 2.333333e-02
 1.492241e-01, 2.666667e-02
 1.686558e-01, 3.000000e-02
 1.866684e-01, 3.333333e-02
 2.047005e-01, 3.666667e-02
 2.233085e-01, 4.000000e-02
 2.422542e-01, 4.333333e-02
 2.604996e-01, 4.666667e-02
 2.786111e-01, 5.000000e-02
 2.976363e-01, 5.333333e-02
 3.155414e-01, 5.666667e-02
 3.325305e-01, 6.000000e-02
 3.507591e-01, 6.333333e-02
 3.689545e-01, 6.666667e-02
 3.871636e-01, 7.000000e-02
** ... 9 like lines cut
*Viscoelastic, time=PRONY
 1.269867e-08, 0.000000e+00, 7.591942e-26
 2.611208e-07, 0.000000e+00, 3.911219e-21
 7.662216e-10, 0.000000e+00, 1.414956e-25
 1.999326e-12, 0.000000e+00, 1.412848e-24
 1.590961e-07, 0.000000e+00, 1.439232e-23
 2.236357e-02, 0.000000e+00, 8.664327e-20
 1.139828e-02, 0.000000e+00, 5.255858e-19
 1.826108e-02, 0.000000e+00, 2.041235e-18
 2.656516e-02, 0.000000e+00, 1.062063e-17
 3.455295e-02, 0.000000e+00, 7.495488e-17
 4.413018e-02, 0.000000e+00, 5.836088e-16
 5.214391e-02, 0.000000e+00, 4.570604e-15
 5.750222e-02, 0.000000e+00, 4.515541e-14
 6.739576e-02, 0.000000e+00, 5.644682e-13
 7.832030e-02, 0.000000e+00, 7.859418e-12
 7.475564e-02, 0.000000e+00, 1.186495e-10
 7.126131e-02, 0.000000e+00, 1.918816e-09
 7.782751e-02, 0.000000e+00, 2.722148e-08
 8.767256e-02, 0.000000e+00, 3.108028e-07
 8.772172e-02, 0.000000e+00, 2.926191e-06
** ... 11 like lines cut
*Trs, definition=USER
*Material, name=Mix_Agilus_VeroWhiteUltra_371100ppm
*Density
 1.165156e-09
*Depvar
  1,
*Expansion
 1.020000e-04, 4.000000e+01
 1.570000e-04, 8.000000e+01
*Hyperelastic, mooney-rivlin, test data input, moduli=LONG TERM, poisson=5.000e-01
*Uniaxial Test Data
 2.162934e-02, 4.000000e-03
 4.325868e-02, 8.000000e-03
 6.488803e-02, 1.200000e-02
 8.651737e-02, 1.600000e-02
 1.081467e-01, 2.000000e-02
 1.246205e-01, 2.333333e-02
 1.424157e-01, 2.666667e-02
 1.609995e-01, 3.000000e-02
 1.782153e-01, 3.333333e-02
 1.954090e-01, 3.666667e-02
 2.131553e-01, 4.000000e-02
 2.312586e-01, 4.333333e-02
 2.487081e-01, 4.666667e-02
 2.659953e-01, 5.000000e-02
 2.841754e-01, 5.333333e-02
 3.012774e-01, 5.666667e-02
 3.174634e-01, 6.000000e-02
 3.348566e-01, 6.333333e-02
 3.522235e-01, 6.666667e-02
 3.696227e-01, 7.000000e-02
** ... 9 like lines cut
*Viscoelastic, time=PRONY
 6.081458e-10, 0.000000e+00, 2.212271e-27
 3.450498e-14, 0.000000e+00, 1.711319e-20
 8.717733e-03, 0.000000e+00, 2.208002e-25
 1.481338e-03, 0.000000e+00, 1.758742e-19
 1.981100e-06, 0.000000e+00, 2.207758e-23
 2.813241e-02, 0.000000e+00, 1.571501e-19
 4.087990e-02, 0.000000e+00, 3.876207e-17
 3.414294e-02, 0.000000e+00, 2.965519e-18
 1.092891e-02, 0.000000e+00, 2.879856e-16
 3.471125e-02, 0.000000e+00, 4.478139e-16
 3.975232e-09, 0.000000e+00, 3.562166e-16
 5.463621e-02, 0.000000e+00, 2.754943e-14
 5.263551e-02, 0.000000e+00, 3.289173e-15
 5.852049e-02, 0.000000e+00, 2.637552e-13
 7.741575e-02, 0.000000e+00, 3.955523e-10
 5.827656e-02, 0.000000e+00, 2.207761e-12
 8.007781e-02, 0.000000e+00, 2.207758e-11
 7.091363e-02, 0.000000e+00, 6.577898e-09
 7.887492e-02, 0.000000e+00, 8.705484e-08
 8.535290e-02, 0.000000e+00, 9.273741e-07
** ... 11 like lines cut
*Trs, definition=USER
*Material, name=Mix_Agilus_VeroWhiteUltra_402000ppm
*Density
 1.163920e-09
*Depvar
  1,
*Expansion
 1.020000e-04, 4.000000e+01
 1.570000e-04, 8.000000e+01
*Hyperelastic, mooney-rivlin, test data input, moduli=LONG TERM, poisson=5.000e-01
*Uniaxial Test Data
 2.059291e-02, 4.000000e-03
 4.118582e-02, 8.000000e-03
 6.177873e-02, 1.200000e-02
 8.237164e-02, 1.600000e-02
 1.029646e-01, 2.000000e-02
 1.186427e-01, 2.333333e-02
 1.355932e-01, 2.666667e-02
 1.533275e-01, 3.000000e-02
 1.697448e-01, 3.333333e-02
 1.860983e-01, 3.666667e-02
 2.029812e-01, 4.000000e-02
 2.202404e-01, 4.333333e-02
 2.368923e-01, 4.666667e-02
 2.533536e-01, 5.000000e-02
 2.706869e-01, 5.333333e-02
 2.869842e-01, 5.666667e-02
 3.023654e-01, 6.000000e-02
 3.189214e-01, 6.333333e-02
 3.354581e-01, 6.666667e-02
 3.520457e-01, 7.000000e-02
** ... 9 like lines cut
*Viscoelastic, time=PRONY
 2.802783e-06, 0.000000e+00, 3.234823e-23
 1.870575e-07, 0.000000e+00, 1.835279e-24
 1.696394e-13, 0.000000e+00, 3.561519e-25
 1.552611e-09, 0.000000e+00, 4.221323e-24
 3.476271e-02, 0.000000e+00, 2.512545e-19
 2.902883e-08, 0.000000e+00, 7.460015e-20
 4.612666e-02, 0.000000e+00, 7.011332e-18
 5.720725e-09, 0.000000e+00, 4.738029e-15
 4.941854e-02, 0.000000e+00, 1.283096e-16
 4.668028e-02, 0.000000e+00, 1.186999e-15
 4.308021e-02, 0.000000e+00, 1.111005e-14
 1.973462e-02, 0.000000e+00, 6.782365e-15
 6.355098e-02, 0.000000e+00, 7.724463e-13
 5.682101e-02, 0.000000e+00, 9.018600e-14
 3.193582e-02, 0.000000e+00, 7.155360e-10
 8.957513e-02, 0.000000e+00, 9.815746e-12
 7.043458e-02, 0.000000e+00, 1.709657e-10
 6.879162e-02, 0.000000e+00, 6.189119e-09
 7.316662e-02, 0.000000e+00, 7.841388e-08
 7.320162e-02, 0.000000e+00, 7.488031e-07
** ... 11 like lines cut
*Trs, definition=USER
*Material, name=Mix_Agilus_VeroWhiteUltra_433000ppm
*Density
 1.162680e-09
*Depvar
  1,
*Expansion
 1.020000e-04, 4.000000e+01
 1.570000e-04, 8.000000e+01
*Hyperelastic, mooney-rivlin, test data input, moduli=LONG TERM, poisson=5.000e-01
*Uniaxial Test Data
 1.863238e-02, 4.000000e-03
 3.726475e-02, 8.000000e-03
 5.589713e-02, 1.200000e-02
 7.452951e-02, 1.600000e-02
 9.316188e-02, 2.000000e-02
 1.073351e-01, 2.333333e-02
 1.226878e-01, 2.666667e-02
 1.388149e-01, 3.000000e-02
 1.537219e-01, 3.333333e-02
 1.684861e-01, 3.666667e-02
 1.837358e-01, 4.000000e-02
 1.993981e-01, 4.333333e-02
 2.145414e-01, 4.666667e-02
 2.294404e-01, 5.000000e-02
 2.451718e-01, 5.333333e-02
 2.599467e-01, 5.666667e-02
 2.738057e-01, 6.000000e-02
 2.887782e-01, 6.333333e-02
 3.037444e-01, 6.666667e-02
 3.187967e-01, 7.000000e-02
** ... 9 like lines cut
*Viscoelastic, time=PRONY
 5.607115e-06, 0.000000e+00, 4.688151e-24
 2.195917e-06, 0.000000e+00, 7.902859e-24
 1.303447e-06, 0.000000e+00, 3.464907e-24
 8.379152e-07, 0.000000e+00, 2.399362e-23
 4.079423e-02, 0.000000e+00, 5.066963e-19
 4.028210e-09, 0.000000e+00, 3.169137e-18
 1.051067e-01, 0.000000e+00, 2.478656e-16
 2.282341e-02, 0.000000e+00, 4.636669e-18
 1.453288e-06, 0.000000e+00, 2.266687e-17
 7.778236e-02, 0.000000e+00, 1.020672e-14
 2.716686e-06, 0.000000e+00, 9.925607e-15
 1.746720e-03, 0.000000e+00, 9.968918e-14
 4.480268e-02, 0.000000e+00, 2.844921e-13
 3.116155e-02, 0.000000e+00, 7.296195e-14
 2.796221e-02, 0.000000e+00, 5.972941e-13
 9.368847e-02, 0.000000e+00, 5.959440e-12
 9.712916e-02, 0.000000e+00, 1.339624e-10
 7.608313e-02, 0.000000e+00, 3.051030e-09
 5.978902e-02, 0.000000e+00, 3.524199e-08
 6.402331e-02, 0.000000e+00, 7.882714e-06
** ... 11 like lines cut
*Trs, definition=USER
*Material, name=Mix_Agilus_VeroWhiteUltra_463900ppm
*Density
 1.161444e-09
*Depvar
  1,
*Expansion
 1.020000e-04, 4.000000e+01
 1.570000e-04, 8.000000e+01
*Hyperelastic, mooney-rivlin, test data input, moduli=LONG TERM, poisson=5.000e-01
*Uniaxial Test Data
 1.651718e-02, 4.000000e-03
 3.303435e-02, 8.000000e-03
 4.955153e-02, 1.200000e-02
 6.606870e-02, 1.600000e-02
 8.258588e-02, 2.000000e-02
 9.513533e-02, 2.333333e-02
 1.087643e-01, 2.666667e-02
 1.231573e-01, 3.000000e-02
 1.364349e-01, 3.333333e-02
 1.494844e-01, 3.666667e-02
 1.629720e-01, 4.000000e-02
 1.769115e-01, 4.333333e-02
 1.904272e-01, 4.666667e-02
 2.036406e-01, 5.000000e-02
 2.176438e-01, 5.333333e-02
 2.307763e-01, 5.666667e-02
 2.429930e-01, 6.000000e-02
 2.562569e-01, 6.333333e-02
 2.695287e-01, 6.666667e-02
 2.829248e-01, 7.000000e-02
** ... 9 like lines cut
*Viscoelastic, time=PRONY
 6.098114e-09, 0.000000e+00, 4.519361e-26
 1.383870e-05, 0.000000e+00, 1.002335e-22
 2.575398e-06, 0.000000e+00, 9.426234e-22
 5.795728e-05, 0.000000e+00, 1.391797e-19
 1.007943e-05, 0.000000e+00, 4.339976e-19
 2.033638e-02, 0.000000e+00, 2.441846e-19
 1.572001e-07, 0.000000e+00, 1.067001e-16
 6.844495e-02, 0.000000e+00, 7.497038e-18
 7.662779e-02, 0.000000e+00, 3.944551e-15
 1.465767e-02, 0.000000e+00, 2.340010e-14
 5.674935e-02, 0.000000e+00, 2.589701e-16
 3.969303e-02, 0.000000e+00, 4.731630e-14
 5.716954e-02, 0.000000e+00, 2.326985e-13
 4.010961e-02, 0.000000e+00, 1.169612e-12
 5.768513e-02, 0.000000e+00, 5.650786e-12
 5.176461e-02, 0.000000e+00, 2.547604e-11
 9.197633e-02, 0.000000e+00, 2.659603e-10
 1.677607e-02, 0.000000e+00, 2.551786e-09
 8.439212e-02, 0.000000e+00, 1.035506e-08
 1.036751e-01, 0.000000e+00, 3.898380e-07
** ... 11 like lines cut
*Trs, definition=USER
*Material, name=Mix_Agilus_VeroWhiteUltra_494800ppm
*Density
 1.160208e-09
*Depvar
  1,
*Expansion
 1.020000e-04, 4.000000e+01
 1.570000e-04, 8.000000e+01
*Hyperelastic, mooney-rivlin, test data input, moduli=LONG TERM, poisson=5.000e-01
*Uniaxial Test Data
 1.447154e-02, 4.000000e-03
 2.894309e-02, 8.000000e-03
 4.341463e-02, 1.200000e-02
 5.788618e-02, 1.600000e-02
 7.235772e-02, 2.000000e-02
 8.333685e-02, 2.333333e-02
 9.529871e-02, 2.666667e-02
 1.080148e-01, 3.000000e-02
 1.197164e-01, 3.333333e-02
 1.311077e-01, 3.666667e-02
 1.428912e-01, 4.000000e-02
 1.551646e-01, 4.333333e-02
 1.671061e-01, 4.666667e-02
 1.786894e-01, 5.000000e-02
 1.910212e-01, 5.333333e-02
 2.025652e-01, 5.666667e-02
 2.131937e-01, 6.000000e-02
 2.248053e-01, 6.333333e-02
 2.364384e-01, 6.666667e-02
 2.482326e-01, 7.000000e-02
** ... 9 like lines cut
*Viscoelastic, time=PRONY
 1.998739e-10, 0.000000e+00, 5.002738e-24
 4.722816e-07, 0.000000e+00, 3.964375e-22
 3.819018e-07, 0.000000e+00, 1.644187e-19
 1.575030e-06, 0.000000e+00, 1.144182e-21
 1.446144e-07, 0.000000e+00, 1.891020e-22
 4.872731e-02, 0.000000e+00, 4.361446e-18
 2.358320e-02, 0.000000e+00, 1.880308e-20
 2.700233e-06, 0.000000e+00, 4.545449e-15
 2.844102e-02, 0.000000e+00, 8.714755e-17
 9.737296e-02, 0.000000e+00, 5.267340e-15
 4.817419e-02, 0.000000e+00, 1.882756e-16
 1.024079e-01, 0.000000e+00, 1.888724e-13
 4.304334e-02, 0.000000e+00, 4.420263e-12
 1.613503e-02, 0.000000e+00, 1.881771e-13
 3.794911e-02, 0.000000e+00, 5.316854e-12
 3.563102e-02, 0.000000e+00, 1.879815e-11
 1.482104e-01, 0.000000e+00, 4.036707e-10
 2.431496e-03, 0.000000e+00, 1.428160e-08
 1.007600e-01, 0.000000e+00, 4.442548e-08
 8.024665e-02, 0.000000e+00, 1.238716e-06
** ... 11 like lines cut
*Trs, definition=USER
*Material, name=Mix_Agilus_VeroWhiteUltra_525700ppm
*Density
 1.158972e-09
*Depvar
  1,
*Expansion
 1.020000e-04, 4.000000e+01
 1.570000e-04, 8.000000e+01
*Hyperelastic, mooney-rivlin, test data input, moduli=LONG TERM, poisson=5.000e-01
*Uniaxial Test Data
 1.253104e-02, 4.000000e-03
 2.506208e-02, 8.000000e-03
 3.759313e-02, 1.200000e-02
 5.012417e-02, 1.600000e-02
 6.265521e-02, 2.000000e-02
 7.214472e-02, 2.333333e-02
 8.252515e-02, 2.666667e-02
 9.365049e-02, 3.000000e-02
 1.038572e-01, 3.333333e-02
 1.136755e-01, 3.666667e-02
 1.238424e-01, 4.000000e-02
 1.345352e-01, 4.333333e-02
 1.449836e-01, 4.666667e-02
 1.550205e-01, 5.000000e-02
 1.657668e-01, 5.333333e-02
 1.758040e-01, 5.666667e-02
 1.849258e-01, 6.000000e-02
 1.949701e-01, 6.333333e-02
 2.050488e-01, 6.666667e-02
 2.153234e-01, 7.000000e-02
** ... 9 like lines cut
*Viscoelastic, time=PRONY
 7.122271e-06, 0.000000e+00, 1.781894e-23
 2.392257e-10, 0.000000e+00, 6.363250e-25
 9.616978e-12, 0.000000e+00, 5.577011e-23
 2.319040e-08, 0.000000e+00, 9.549085e-23
 5.921433e-02, 0.000000e+00, 2.427591e-18
 5.326255e-02, 0.000000e+00, 1.045014e-16
 7.014378e-02, 0.000000e+00, 1.074431e-15
 6.094226e-10, 0.000000e+00, 3.712069e-19
 5.280285e-08, 0.000000e+00, 3.929289e-15
 1.412023e-09, 0.000000e+00, 4.115824e-17
 1.036758e-01, 0.000000e+00, 2.486762e-14
 1.424219e-06, 0.000000e+00, 3.595658e-15
 9.837024e-07, 0.000000e+00, 3.593800e-14
 1.049919e-01, 0.000000e+00, 6.002204e-13
 1.046251e-01, 0.000000e+00, 1.295513e-11
 7.205180e-05, 0.000000e+00, 3.590096e-11
 1.320805e-01, 0.000000e+00, 3.590096e-10
 8.642405e-07, 0.000000e+00, 4.985325e-08
 1.109378e-01, 0.000000e+00, 3.590103e-08
 9.285906e-02, 0.000000e+00, 1.573197e-06
** ... 11 like lines cut
*Trs, definition=USER
*Material, name=Mix_Agilus_VeroWhiteUltra_556700ppm
*Density
 1.157732e-09
*Depvar
  1,
*Expansion
 1.020000e-04, 4.000000e+01
 1.570000e-04, 8.000000e+01
*Hyperelastic, mooney-rivlin, test data input, moduli=LONG TERM, poisson=5.000e-01
*Uniaxial Test Data
 1.070507e-02, 4.000000e-03
 2.141014e-02, 8.000000e-03
 3.211520e-02, 1.200000e-02
 4.282027e-02, 1.600000e-02
 5.352534e-02, 2.000000e-02
 6.161315e-02, 2.333333e-02
 7.050548e-02, 2.666667e-02
 8.013395e-02, 3.000000e-02
 8.893400e-02, 3.333333e-02
 9.727205e-02, 3.666667e-02
 1.059178e-01, 4.000000e-02
 1.151234e-01, 4.333333e-02
 1.241667e-01, 4.666667e-02
 1.327485e-01, 5.000000e-02
 1.420030e-01, 5.333333e-02
 1.506223e-01, 5.666667e-02
 1.583263e-01, 6.000000e-02
 1.668957e-01, 6.333333e-02
 1.755117e-01, 6.666667e-02
 1.843565e-01, 7.000000e-02
** ... 9 like lines cut
*Viscoelastic, time=PRONY
 1.407726e-08, 0.000000e+00, 5.222429e-21
 4.501951e-02, 0.000000e+00, 7.286330e-19
 5.302896e-14, 0.000000e+00, 7.331772e-24
 5.051175e-09, 0.000000e+00, 7.513861e-23
 4.085043e-02, 0.000000e+00, 2.712914e-17
 2.762893e-09, 0.000000e+00, 7.389168e-21
 1.172215e-01, 0.000000e+00, 9.678771e-16
 6.955442e-09, 0.000000e+00, 8.058109e-17
 1.729427e-09, 0.000000e+00, 7.286328e-12
 2.356306e-09, 0.000000e+00, 2.342056e-12
 4.837989e-09, 0.000000e+00, 7.288522e-16
 4.892319e-09, 0.000000e+00, 5.728443e-12
 1.175957e-01, 0.000000e+00, 7.286336e-14
 6.303926e-02, 0.000000e+00, 7.286427e-13
 9.113857e-02, 0.000000e+00, 7.286335e-12
 7.614160e-02, 0.000000e+00, 7.286363e-11
 9.034744e-02, 0.000000e+00, 7.286369e-10
 3.343913e-02, 0.000000e+00, 7.286334e-09
 9.040899e-02, 0.000000e+00, 7.286343e-08
 2.398708e-02, 0.000000e+00, 7.286334e-07
** ... 11 like lines cut
*Trs, definition=USER
*Material, name=Mix_Agilus_VeroWhiteUltra_587600ppm
*Density
 1.156496e-09
*Depvar
  1,
*Expansion
 1.020000e-04, 4.000000e+01
 1.570000e-04, 8.000000e+01
*Hyperelastic, mooney-rivlin, test data input, moduli=LONG TERM, poisson=5.000e-01
*Uniaxial Test Data
 8.996394e-03, 4.000000e-03
 1.799279e-02, 8.000000e-03
 2.698918e-02, 1.200000e-02
 3.598557e-02, 1.600000e-02
 4.498197e-02, 2.000000e-02
 5.175812e-02, 2.333333e-02
 5.925796e-02, 2.666667e-02
 6.748570e-02, 3.000000e-02
 7.496944e-02, 3.333333e-02
 8.192238e-02, 3.666667e-02
 8.914475e-02, 4.000000e-02
 9.695864e-02, 4.333333e-02
 1.046871e-01, 4.666667e-02
 1.119073e-01, 5.000000e-02
 1.197656e-01, 5.333333e-02
 1.270582e-01, 5.666667e-02
 1.334356e-01, 6.000000e-02
 1.406248e-01, 6.333333e-02
 1.478721e-01, 6.666667e-02
 1.553789e-01, 7.000000e-02
** ... 9 like lines cut
*Viscoelastic, time=PRONY
 1.120389e-10, 0.000000e+00, 1.129418e-20
 1.448902e-12, 0.000000e+00, 1.125869e-20
 5.878976e-05, 0.000000e+00, 1.583553e-23
 1.952425e-02, 0.000000e+00, 3.822753e-18
 4.966461e-02, 0.000000e+00, 1.763208e-17
 1.385225e-03, 0.000000e+00, 3.322580e-19
 3.034703e-02, 0.000000e+00, 2.495200e-16
 1.940418e-02, 0.000000e+00, 2.168120e-16
 7.037099e-03, 0.000000e+00, 6.685227e-13
 2.260248e-14, 0.000000e+00, 3.527998e-16
 6.596294e-02, 0.000000e+00, 2.570949e-15
 6.303684e-02, 0.000000e+00, 2.187235e-14
 7.410700e-02, 0.000000e+00, 1.580868e-13
 8.511329e-02, 0.000000e+00, 1.580521e-12
 9.281703e-02, 0.000000e+00, 1.979026e-11
 8.414194e-02, 0.000000e+00, 2.048882e-10
 7.839288e-02, 0.000000e+00, 2.117876e-09
 6.121507e-02, 0.000000e+00, 2.290754e-08
 4.959521e-02, 0.000000e+00, 2.356531e-07
 4.788007e-02, 0.000000e+00, 1.945912e-06
** ... 11 like lines cut
*Trs, definition=USER
*Material, name=Mix_Agilus_VeroWhiteUltra_618500ppm
*Density
 1.155260e-09
*Depvar
  1,
*Expansion
 1.020000e-04, 4.000000e+01
 1.570000e-04, 8.000000e+01
*Hyperelastic, mooney-rivlin, test data input, moduli=LONG TERM, poisson=5.000e-01
*Uniaxial Test Data
 7.382306e-03, 4.000000e-03
 1.476461e-02, 8.000000e-03
 2.214692e-02, 1.200000e-02
 2.952922e-02, 1.600000e-02
 3.691153e-02, 2.000000e-02
 4.244863e-02, 2.333333e-02
 4.863306e-02, 2.666667e-02
 5.553762e-02, 3.000000e-02
 6.177791e-02, 3.333333e-02
 6.742241e-02, 3.666667e-02
 7.330016e-02, 4.000000e-02
 7.979939e-02, 4.333333e-02
 8.628583e-02, 4.666667e-02
 9.221972e-02, 5.000000e-02
 9.875932e-02, 5.333333e-02
 1.047985e-01, 5.666667e-02
 1.099227e-01, 6.000000e-02
 1.158082e-01, 6.333333e-02
 1.217625e-01, 6.666667e-02
 1.280054e-01, 7.000000e-02
** ... 9 like lines cut
*Viscoelastic, time=PRONY
 5.947048e-08, 0.000000e+00, 3.293539e-23
 1.249653e-02, 0.000000e+00, 6.383886e-19
 4.420440e-10, 0.000000e+00, 3.859857e-19
 7.764815e-12, 0.000000e+00, 2.833568e-20
 8.444838e-02, 0.000000e+00, 6.637906e-17
 3.717772e-02, 0.000000e+00, 8.796540e-16
 8.592107e-02, 0.000000e+00, 7.825415e-15
 4.437599e-11, 0.000000e+00, 1.632367e-17
 1.194810e-03, 0.000000e+00, 3.894064e-13
 2.700251e-02, 0.000000e+00, 1.708312e-13
 8.843564e-02, 0.000000e+00, 2.014951e-12
 6.314430e-02, 0.000000e+00, 1.043643e-13
 1.638756e-02, 0.000000e+00, 3.720855e-13
 4.199898e-02, 0.000000e+00, 1.014241e-11
 7.772849e-02, 0.000000e+00, 4.905114e-11
 7.879596e-02, 0.000000e+00, 3.721015e-10
 8.386435e-02, 0.000000e+00, 3.721114e-09
 6.574298e-02, 0.000000e+00, 5.115440e-08
 4.306119e-02, 0.000000e+00, 5.491558e-07
 4.458253e-02, 0.000000e+00, 3.720854e-06
** ... 11 like lines cut
*Trs, definition=USER
*Material, name=Mix_Agilus_VeroWhiteUltra_649400ppm
*Density
 1.154024e-09
*Depvar
  1,
*Expansion
 1.020000e-04, 4.000000e+01
 1.570000e-04, 8.000000e+01
*Hyperelastic, mooney-rivlin, test data input, moduli=LONG TERM, poisson=5.000e-01
*Uniaxial Test Data
 5.865486e-03, 4.000000e-03
 1.173097e-02, 8.000000e-03
 1.759646e-02, 1.200000e-02
 2.346194e-02, 1.600000e-02
 2.932743e-02, 2.000000e-02
 3.370015e-02, 2.333333e-02
 3.864843e-02, 2.666667e-02
 4.430955e-02, 3.000000e-02
 4.938132e-02, 3.333333e-02
 5.379624e-02, 3.666667e-02
 5.841039e-02, 4.000000e-02
 6.367418e-02, 4.333333e-02
 6.899343e-02, 4.666667e-02
 7.371859e-02, 5.000000e-02
 7.901887e-02, 5.333333e-02
 8.388026e-02, 5.666667e-02
 8.782670e-02, 6.000000e-02
 9.248703e-02, 6.333333e-02
 9.722628e-02, 6.666667e-02
 1.022814e-01, 7.000000e-02
** ... 9 like lines cut
*Viscoelastic, time=PRONY
 1.104651e-05, 0.000000e+00, 8.022158e-23
 4.043070e-03, 0.000000e+00, 2.427804e-19
 1.287429e-09, 0.000000e+00, 1.446541e-19
 4.123966e-15, 0.000000e+00, 1.010119e-18
 8.589879e-02, 0.000000e+00, 7.262044e-17
 6.862640e-02, 0.000000e+00, 2.269044e-15
 4.604373e-02, 0.000000e+00, 1.390797e-14
 1.996132e-02, 0.000000e+00, 4.070852e-14
 6.743911e-02, 0.000000e+00, 5.562491e-13
 4.386705e-11, 0.000000e+00, 3.456854e-13
 2.481824e-10, 0.000000e+00, 7.598343e-10
 5.965786e-02, 0.000000e+00, 1.316734e-13
 2.004401e-02, 0.000000e+00, 1.485086e-12
 1.107563e-01, 0.000000e+00, 9.685582e-12
 9.630610e-02, 0.000000e+00, 1.286477e-10
 8.125817e-02, 0.000000e+00, 1.271151e-09
 6.968051e-02, 0.000000e+00, 1.056381e-08
 5.666944e-02, 0.000000e+00, 9.687629e-08
 4.568051e-02, 0.000000e+00, 9.685425e-07
 4.641928e-02, 0.000000e+00, 9.685429e-06
** ... 11 like lines cut
*Trs, definition=USER
*Material, name=Mix_Agilus_VeroWhiteUltra_680400ppm
*Density
 1.152784e-09
*Depvar
  1,
*Expansion
 1.020000e-04, 4.000000e+01
 1.570000e-04, 8.000000e+01
*Hyperelastic, mooney-rivlin, test data input, moduli=LONG TERM, poisson=5.000e-01
*Uniaxial Test Data
 4.490455e-03, 4.000000e-03
 8.980910e-03, 8.000000e-03
 1.347137e-02, 1.200000e-02
 1.796182e-02, 1.600000e-02
 2.245228e-02, 2.000000e-02
 2.576946e-02, 2.333333e-02
 2.959715e-02, 2.666667e-02
 3.413106e-02, 3.000000e-02
 3.814355e-02, 3.333333e-02
 4.144382e-02, 3.666667e-02
 4.491248e-02, 4.000000e-02
 4.905633e-02, 4.333333e-02
 5.331750e-02, 4.666667e-02
 5.694691e-02, 5.000000e-02
 6.112372e-02, 5.333333e-02
 6.491740e-02, 5.666667e-02
 6.779623e-02, 6.000000e-02
 7.134591e-02, 6.333333e-02
 7.498369e-02, 6.666667e-02
 7.896209e-02, 7.000000e-02
** ... 9 like lines cut
*Viscoelastic, time=PRONY
 1.245951e-02, 0.000000e+00, 8.455224e-20
 5.453417e-14, 0.000000e+00, 2.882648e-23
 4.750137e-12, 0.000000e+00, 1.483504e-19
 5.444919e-07, 0.000000e+00, 2.909610e-19
 1.432814e-08, 0.000000e+00, 4.041594e-18
 7.044466e-02, 0.000000e+00, 2.594893e-16
 1.037861e-01, 0.000000e+00, 1.225889e-14
 3.030450e-02, 0.000000e+00, 2.143117e-16
 4.477882e-02, 0.000000e+00, 2.067779e-13
 4.794526e-02, 0.000000e+00, 3.212726e-13
 4.142680e-02, 0.000000e+00, 1.087704e-12
 6.574678e-03, 0.000000e+00, 3.947970e-13
 7.308311e-02, 0.000000e+00, 6.186483e-12
 7.950928e-02, 0.000000e+00, 2.872277e-11
 9.793384e-02, 0.000000e+00, 2.872359e-10
 8.512307e-02, 0.000000e+00, 2.872308e-09
 7.343500e-02, 0.000000e+00, 2.873648e-08
 5.412969e-02, 0.000000e+00, 2.872277e-07
 4.144569e-02, 0.000000e+00, 2.872621e-06
 4.026601e-02, 0.000000e+00, 2.872961e-05
** ... 11 like lines cut
*Trs, definition=USER
*Material, name=Mix_Agilus_VeroWhiteUltra_711300ppm
*Density
 1.151548e-09
*Depvar
  1,
*Expansion
 1.020000e-04, 4.000000e+01
 1.570000e-04, 8.000000e+01
*Hyperelastic, mooney-rivlin, test data input, moduli=LONG TERM, poisson=5.000e-01
*Uniaxial Test Data
 3.365642e-03, 4.000000e-03
 6.731285e-03, 8.000000e-03
 1.009693e-02, 1.200000e-02
 1.346257e-02, 1.600000e-02
 1.682821e-02, 2.000000e-02
 1.928194e-02, 2.333333e-02
 2.219295e-02, 2.666667e-02
 2.580478e-02, 3.000000e-02
 2.895074e-02, 3.333333e-02
 3.133920e-02, 3.666667e-02
 3.387083e-02, 4.000000e-02
 3.709853e-02, 4.333333e-02
 4.049416e-02, 4.666667e-02
 4.322722e-02, 5.000000e-02
 4.648500e-02, 5.333333e-02
 4.940526e-02, 5.666667e-02
 5.141075e-02, 6.000000e-02
 5.405190e-02, 6.333333e-02
 5.678864e-02, 6.666667e-02
 5.988625e-02, 7.000000e-02
** ... 9 like lines cut
*Viscoelastic, time=PRONY
 2.717759e-06, 0.000000e+00, 9.755482e-23
 1.156896e-02, 0.000000e+00, 1.304993e-17
 1.045571e-01, 0.000000e+00, 7.823810e-16
 2.684604e-09, 0.000000e+00, 5.654228e-15
 2.129801e-09, 0.000000e+00, 2.676461e-14
 9.209986e-02, 0.000000e+00, 2.544247e-14
 6.285687e-02, 0.000000e+00, 2.825890e-13
 1.226147e-10, 0.000000e+00, 2.679070e-16
 9.870712e-12, 0.000000e+00, 1.010596e-15
 3.958110e-12, 0.000000e+00, 1.003592e-14
 1.230648e-08, 0.000000e+00, 1.003115e-13
 7.620608e-02, 0.000000e+00, 1.110990e-12
 1.029433e-01, 0.000000e+00, 1.003116e-11
 1.026835e-01, 0.000000e+00, 1.003115e-10
 9.509618e-02, 0.000000e+00, 1.003115e-09
 8.629499e-02, 0.000000e+00, 1.003115e-08
 6.909566e-02, 0.000000e+00, 1.003122e-07
 4.929562e-02, 0.000000e+00, 1.003118e-06
 3.916030e-02, 0.000000e+00, 1.003118e-05
 3.320060e-02, 0.000000e+00, 1.003116e-04
** ... 11 like lines cut
*Trs, definition=USER
*Material, name=Mix_Agilus_VeroWhiteUltra_742200ppm
*Density
 1.150312e-09
*Depvar
  1,
*Expansion
 1.020000e-04, 4.000000e+01
 1.570000e-04, 8.000000e+01
*Hyperelastic, mooney-rivlin, test data input, moduli=LONG TERM, poisson=5.000e-01
*Uniaxial Test Data
 2.586387e-03, 4.000000e-03
 5.172774e-03, 8.000000e-03
 7.759161e-03, 1.200000e-02
 1.034555e-02, 1.600000e-02
 1.293194e-02, 2.000000e-02
 1.478747e-02, 2.333333e-02
 1.706342e-02, 2.666667e-02
 2.003644e-02, 3.000000e-02
 2.258208e-02, 3.333333e-02
 2.433885e-02, 3.666667e-02
 2.622132e-02, 4.000000e-02
 2.881433e-02, 4.333333e-02
 3.161032e-02, 4.666667e-02
 3.372240e-02, 5.000000e-02
 3.634348e-02, 5.333333e-02
 3.865866e-02, 5.666667e-02
 4.005911e-02, 6.000000e-02
 4.207083e-02, 6.333333e-02
 4.418336e-02, 6.666667e-02
 4.667076e-02, 7.000000e-02
** ... 9 like lines cut
*Viscoelastic, time=PRONY
 8.531506e-02, 0.000000e+00, 5.845171e-18
 3.373834e-09, 0.000000e+00, 7.921313e-18
 4.401030e-13, 0.000000e+00, 5.000732e-17
 3.689437e-08, 0.000000e+00, 4.456605e-20
 4.544903e-14, 0.000000e+00, 4.424653e-19
 1.867021e-12, 0.000000e+00, 9.343507e-14
 9.771585e-02, 0.000000e+00, 7.755984e-13
 7.207696e-02, 0.000000e+00, 5.479260e-15
 7.347984e-02, 0.000000e+00, 3.506231e-11
 8.041042e-02, 0.000000e+00, 4.425376e-14
 4.988643e-02, 0.000000e+00, 1.222685e-10
 7.474431e-02, 0.000000e+00, 5.902733e-12
 7.599076e-08, 0.000000e+00, 2.591753e-07
 8.381708e-02, 0.000000e+00, 4.427532e-10
 6.669088e-02, 0.000000e+00, 4.426283e-09
 1.063295e-01, 0.000000e+00, 4.428792e-08
 7.212037e-02, 0.000000e+00, 4.425959e-07
 4.203761e-02, 0.000000e+00, 1.402271e-05
 2.577259e-02, 0.000000e+00, 4.424917e-05
 2.334071e-02, 0.000000e+00, 4.424597e-04
** ... 11 like lines cut
*Trs, definition=USER
*Material, name=Mix_Agilus_VeroWhiteUltra_773100ppm
*Density
 1.149076e-09
*Depvar
  1,
*Expansion
 1.020000e-04, 4.000000e+01
 1.570000e-04, 8.000000e+01
*Hyperelastic, mooney-rivlin, test data input, moduli=LONG TERM, poisson=5.000e-01
*Uniaxial Test Data
 2.123018e-03, 4.000000e-03
 4.246036e-03, 8.000000e-03
 6.369054e-03, 1.200000e-02
 8.492072e-03, 1.600000e-02
 1.061509e-02, 2.000000e-02
 1.211492e-02, 2.333333e-02
 1.401324e-02, 2.666667e-02
 1.660641e-02, 3.000000e-02
 1.879509e-02, 3.333333e-02
 2.017623e-02, 3.666667e-02
 2.167268e-02, 4.000000e-02
 2.388828e-02, 4.333333e-02
 2.632772e-02, 4.666667e-02
 2.807054e-02, 5.000000e-02
 3.031303e-02, 5.333333e-02
 3.226840e-02, 5.666667e-02
 3.330908e-02, 6.000000e-02
 3.494652e-02, 6.333333e-02
 3.668787e-02, 6.666667e-02
 3.881243e-02, 7.000000e-02
** ... 9 like lines cut
*Viscoelastic, time=PRONY
 7.415552e-03, 0.000000e+00, 2.954668e-17
 5.157488e-09, 0.000000e+00, 1.695199e-19
 4.945338e-06, 0.000000e+00, 1.058051e-19
 4.298764e-02, 0.000000e+00, 7.314742e-15
 2.985652e-02, 0.000000e+00, 3.582197e-15
 2.849397e-12, 0.000000e+00, 9.289122e-13
 1.348205e-14, 0.000000e+00, 2.838934e-16
 1.229044e-01, 0.000000e+00, 8.188683e-14
 1.165007e-09, 0.000000e+00, 4.228200e-12
 1.282677e-09, 0.000000e+00, 6.472526e-08
 1.342986e-01, 0.000000e+00, 2.800578e-12
 8.753187e-02, 0.000000e+00, 2.802519e-11
 1.416926e-01, 0.000000e+00, 2.800578e-10
 1.313209e-01, 0.000000e+00, 5.266936e-09
 1.018494e-01, 0.000000e+00, 8.777890e-08
 3.412148e-02, 0.000000e+00, 6.494125e-07
 5.313301e-02, 0.000000e+00, 2.800613e-06
 3.515077e-02, 0.000000e+00, 2.800591e-05
 2.570961e-02, 0.000000e+00, 2.800726e-04
 1.725356e-02, 0.000000e+00, 2.800696e-03
** ... 11 like lines cut
*Trs, definition=USER
*Material, name=Mix_Agilus_VeroWhiteUltra_804100ppm
*Density
 1.147836e-09
*Depvar
  1,
*Expansion
 1.020000e-04, 4.000000e+01
 1.570000e-04, 8.000000e+01
*Hyperelastic, mooney-rivlin, test data input, moduli=LONG TERM, poisson=5.000e-01
*Uniaxial Test Data
 1.853446e-03, 4.000000e-03
 3.706892e-03, 8.000000e-03
 5.560338e-03, 1.200000e-02
 7.413784e-03, 1.600000e-02
 9.267230e-03, 2.000000e-02
 1.056013e-02, 2.333333e-02
 1.223876e-02, 2.666667e-02
 1.461094e-02, 3.000000e-02
 1.659194e-02, 3.333333e-02
 1.775456e-02, 3.666667e-02
 1.902645e-02, 4.000000e-02
 2.102248e-02, 4.333333e-02
 2.325449e-02, 4.666667e-02
 2.478248e-02, 5.000000e-02
 2.680472e-02, 5.333333e-02
 2.855077e-02, 5.666667e-02
 2.938215e-02, 6.000000e-02
 3.080185e-02, 6.333333e-02
 3.232725e-02, 6.666667e-02
 3.424072e-02, 7.000000e-02
** ... 9 like lines cut
*Viscoelastic, time=PRONY
 2.835095e-08, 0.000000e+00, 5.972938e-16
 8.476423e-03, 0.000000e+00, 1.662832e-15
 4.972489e-13, 0.000000e+00, 9.565243e-15
 1.551478e-07, 0.000000e+00, 3.531718e-18
 1.970082e-01, 0.000000e+00, 2.825059e-13
 1.677385e-02, 0.000000e+00, 3.531699e-16
 1.937215e-01, 0.000000e+00, 2.714984e-11
 1.080985e-09, 0.000000e+00, 7.200746e-11
 3.450941e-09, 0.000000e+00, 4.390752e-09
 2.038268e-11, 0.000000e+00, 2.811300e-11
 1.130588e-01, 0.000000e+00, 6.067813e-10
 1.380952e-01, 0.000000e+00, 1.026582e-07
 1.364960e-01, 0.000000e+00, 5.553676e-09
 7.936240e-07, 0.000000e+00, 5.179811e-04
 1.090683e-01, 0.000000e+00, 3.451484e-06
 4.907547e-06, 0.000000e+00, 3.531738e-06
 4.314984e-02, 0.000000e+00, 1.344864e-04
 2.958824e-02, 0.000000e+00, 6.273584e-03
 6.952277e-03, 0.000000e+00, 5.389148e-01
 2.962151e-05, 0.000000e+00, 3.531756e-02
** ... 11 like lines cut
*Trs, definition=USER
*Material, name=Mix_Agilus_VeroWhiteUltra_835000ppm
*Density
 1.146600e-09
*Depvar
  1,
*Expansion
 1.020000e-04, 4.000000e+01
 1.570000e-04, 8.000000e+01
*Hyperelastic, mooney-rivlin, test data input, moduli=LONG TERM, poisson=5.000e-01
*Uniaxial Test Data
 1.258273e-03, 4.000000e-03
 2.516546e-03, 8.000000e-03
 3.774820e-03, 1.200000e-02
 5.033093e-03, 1.600000e-02
 6.291366e-03, 2.000000e-02
 7.127381e-03, 2.333333e-02
 8.320970e-03, 2.666667e-02
 1.020524e-02, 3.000000e-02
 1.172775e-02, 3.333333e-02
 1.240790e-02, 3.666667e-02
 1.318397e-02, 4.000000e-02
 1.469525e-02, 4.333333e-02
 1.646926e-02, 4.666667e-02
 1.752297e-02, 5.000000e-02
 1.905893e-02, 5.333333e-02
 2.034282e-02, 5.666667e-02
 2.071209e-02, 6.000000e-02
 2.165106e-02, 6.333333e-02
 2.269970e-02, 6.666667e-02
 2.414711e-02, 7.000000e-02
** ... 9 like lines cut
*Viscoelastic, time=PRONY
 2.455527e-10, 0.000000e+00, 1.339880e-14
 2.199257e-10, 0.000000e+00, 6.668084e-12
 4.360565e-12, 0.000000e+00, 6.901964e-17
 1.196396e-10, 0.000000e+00, 4.616716e-11
 1.136695e-12, 0.000000e+00, 9.686835e-15
 1.223404e-01, 0.000000e+00, 4.642239e-10
 6.795461e-11, 0.000000e+00, 6.717723e-13
 1.657060e-01, 0.000000e+00, 6.668096e-12
 1.084978e-01, 0.000000e+00, 6.668100e-11
 5.982129e-08, 0.000000e+00, 1.452771e-08
 1.887701e-01, 0.000000e+00, 6.668128e-09
 2.011890e-01, 0.000000e+00, 2.083216e-07
 4.181520e-05, 0.000000e+00, 6.668252e-07
 1.092772e-01, 0.000000e+00, 6.668103e-06
 7.259700e-02, 0.000000e+00, 7.775245e-05
 2.881969e-02, 0.000000e+00, 1.510876e-02
 3.624156e-07, 0.000000e+00, 9.689128e+00
 1.632482e-03, 0.000000e+00, 9.740511e-02
 3.593007e-04, 0.000000e+00, 9.404804e+00
 4.403873e-05, 0.000000e+00, 3.735587e+03
** ... 11 like lines cut
*Trs, definition=USER
**
***************************************************************************
