*HEADING
Voxel FE Sim
**
***************************************************************************
**
** Joël Chapuis & Marc Wirth, 08-Jul-2025 
** Include File: Dogbone.inc
** Description: Voxelized Matter FE Sim for Stratasys Materials
**
***************************************************************************
**
*Include, Input=Dogbone.inc
**
***************************************************************************
**                                                                       **
**   Element Sections                                                    **
**                                                                       **
***************************************************************************
**
** Section: SO_Mix_Agilus_VeroWhiteUltra_0ppm
*SOLID SECTION, ELSET=e_Mix_Agilus_VeroWhiteUltra_0ppm, controls=EC-1, MATERIAL = Mix_Agilus_VeroWhiteUltra_0ppm
,
** Section: SO_Mix_Agilus_VeroWhiteUltra_20900ppm
*SOLID SECTION, ELSET=e_Mix_Agilus_VeroWhiteUltra_20900ppm, controls=EC-1, MATERIAL = Mix_Agilus_VeroWhiteUltra_20900ppm
,
** Section: SO_Mix_Agilus_VeroWhiteUltra_62600ppm
*SOLID SECTION, ELSET=e_Mix_Agilus_VeroWhiteUltra_62600ppm, controls=EC-1, MATERIAL = Mix_Agilus_VeroWhiteUltra_62600ppm
,
** Section: SO_Mix_Agilus_VeroWhiteUltra_104400ppm
*SOLID SECTION, ELSET=e_Mix_Agilus_VeroWhiteUltra_104400ppm, controls=EC-1, MATERIAL = Mix_Agilus_VeroWhiteUltra_104400ppm
,
** Section: SO_Mix_Agilus_VeroWhiteUltra_146100ppm
*SOLID SECTION, ELSET=e_Mix_Agilus_VeroWhiteUltra_146100ppm, controls=EC-1, MATERIAL = Mix_Agilus_VeroWhiteUltra_146100ppm
,
** Section: SO_Mix_Agilus_VeroWhiteUltra_187900ppm
*SOLID SECTION, ELSET=e_Mix_Agilus_VeroWhiteUltra_187900ppm, controls=EC-1, MATERIAL = Mix_Agilus_VeroWhiteUltra_187900ppm
,
** Section: SO_Mix_Agilus_VeroWhiteUltra_229600ppm
*SOLID SECTION, ELSET=e_Mix_Agilus_VeroWhiteUltra_229600ppm, controls=EC-1, MATERIAL = Mix_Agilus_VeroWhiteUltra_229600ppm
,
** Section: SO_Mix_Agilus_VeroWhiteUltra_271400ppm
*SOLID SECTION, ELSET=e_Mix_Agilus_VeroWhiteUltra_271400ppm, controls=EC-1, MATERIAL = Mix_Agilus_VeroWhiteUltra_271400ppm
,
** Section: SO_Mix_Agilus_VeroWhiteUltra_313100ppm
*SOLID SECTION, ELSET=e_Mix_Agilus_VeroWhiteUltra_313100ppm, controls=EC-1, MATERIAL = Mix_Agilus_VeroWhiteUltra_313100ppm
,
** Section: SO_Mix_Agilus_VeroWhiteUltra_354900ppm
*SOLID SECTION, ELSET=e_Mix_Agilus_VeroWhiteUltra_354900ppm, controls=EC-1, MATERIAL = Mix_Agilus_VeroWhiteUltra_354900ppm
,
** Section: SO_Mix_Agilus_VeroWhiteUltra_396600ppm
*SOLID SECTION, ELSET=e_Mix_Agilus_VeroWhiteUltra_396600ppm, controls=EC-1, MATERIAL = Mix_Agilus_VeroWhiteUltra_396600ppm
,
** Section: SO_Mix_Agilus_VeroWhiteUltra_438400ppm
*SOLID SECTION, ELSET=e_Mix_Agilus_VeroWhiteUltra_438400ppm, controls=EC-1, MATERIAL = Mix_Agilus_VeroWhiteUltra_438400ppm
,
** Section: SO_Mix_Agilus_VeroWhiteUltra_480100ppm
*SOLID SECTION, ELSET=e_Mix_Agilus_VeroWhiteUltra_480100ppm, controls=EC-1, MATERIAL = Mix_Agilus_VeroWhiteUltra_480100ppm
,
** Section: SO_Mix_Agilus_VeroWhiteUltra_521900ppm
*SOLID SECTION, ELSET=e_Mix_Agilus_VeroWhiteUltra_521900ppm, controls=EC-1, MATERIAL = Mix_Agilus_VeroWhiteUltra_521900ppm
,
** Section: SO_Mix_Agilus_VeroWhiteUltra_563600ppm
*SOLID SECTION, ELSET=e_Mix_Agilus_VeroWhiteUltra_563600ppm, controls=EC-1, MATERIAL = Mix_Agilus_VeroWhiteUltra_563600ppm
,
** Section: SO_Mix_Agilus_VeroWhiteUltra_605400ppm
*SOLID SECTION, ELSET=e_Mix_Agilus_VeroWhiteUltra_605400ppm, controls=EC-1, MATERIAL = Mix_Agilus_VeroWhiteUltra_605400ppm
,
** Section: SO_Mix_Agilus_VeroWhiteUltra_647100ppm
*SOLID SECTION, ELSET=e_Mix_Agilus_VeroWhiteUltra_647100ppm, controls=EC-1, MATERIAL = Mix_Agilus_VeroWhiteUltra_647100ppm
,
** Section: SO_Mix_Agilus_VeroWhiteUltra_688900ppm
*SOLID SECTION, ELSET=e_Mix_Agilus_VeroWhiteUltra_688900ppm, controls=EC-1, MATERIAL = Mix_Agilus_VeroWhiteUltra_688900ppm
,
** Section: SO_Mix_Agilus_VeroWhiteUltra_730600ppm
*SOLID SECTION, ELSET=e_Mix_Agilus_VeroWhiteUltra_730600ppm, controls=EC-1, MATERIAL = Mix_Agilus_VeroWhiteUltra_730600ppm
,
** Section: SO_Mix_Agilus_VeroWhiteUltra_772400ppm
*SOLID SECTION, ELSET=e_Mix_Agilus_VeroWhiteUltra_772400ppm, controls=EC-1, MATERIAL = Mix_Agilus_VeroWhiteUltra_772400ppm
,
** Section: SO_Mix_Agilus_VeroWhiteUltra_814100ppm
*SOLID SECTION, ELSET=e_Mix_Agilus_VeroWhiteUltra_814100ppm, controls=EC-1, MATERIAL = Mix_Agilus_VeroWhiteUltra_814100ppm
,
** Section: SO_Mix_Agilus_VeroWhiteUltra_835000ppm
*SOLID SECTION, ELSET=e_Mix_Agilus_VeroWhiteUltra_835000ppm, controls=EC-1, MATERIAL = Mix_Agilus_VeroWhiteUltra_835000ppm
,
**
***************************************************************************
**                                                                       **
**   Element Controls                                                    **
**                                                                       **
***************************************************************************
**
*Section Controls, name=EC-1, hourglass=ENHANCED
1., 1., 1.
**
***************************************************************************
**                                                                       **
**   Materials                                                           **
**                                                                       **
***************************************************************************
**
*Material, name=VeroWhiteUltra
*Density
 1.180000e-09
*Depvar
  1,
*Expansion
 1.020000e-04, 4.000000e+01
 1.570000e-04, 8.000000e+01
*Hyperelastic, mooney-rivlin, test data input, moduli=LONG TERM, poisson=5.000e-01
*Uniaxial Test Data
 3.387520e-02, 4.000000e-03
 6.775040e-02, 8.000000e-03
 1.016256e-01, 1.200000e-02
 1.355008e-01, 1.600000e-02
 1.693760e-01, 2.000000e-02
 1.952503e-01, 2.333333e-02
 2.230253e-01, 2.666667e-02
 2.516479e-01, 3.000000e-02
 2.782976e-01, 3.333333e-02
 3.054181e-01, 3.666667e-02
 3.333660e-01, 4.000000e-02
 3.614434e-01, 4.333333e-02
 3.883160e-01, 4.666667e-02
 4.153619e-01, 5.000000e-02
 4.435475e-01, 5.333333e-02
 4.701584e-01, 5.666667e-02
 4.958524e-01, 6.000000e-02
 5.231369e-01, 6.333333e-02
 5.503133e-01, 6.666667e-02
 5.773017e-01, 7.000000e-02
** ... 9 like lines cut
*Viscoelastic, time=PRONY
 1.306583e-02, 0.000000e+00, 6.530000e-20
 9.596792e-03, 0.000000e+00, 7.380000e-19
 1.173392e-02, 0.000000e+00, 6.230000e-18
 1.694979e-02, 0.000000e+00, 3.810000e-17
 1.797405e-02, 0.000000e+00, 1.750000e-16
 1.322089e-02, 0.000000e+00, 9.040000e-16
 1.276014e-02, 0.000000e+00, 5.420000e-15
 1.610320e-02, 0.000000e+00, 3.330000e-14
 2.290619e-02, 0.000000e+00, 1.850000e-13
 2.797923e-02, 0.000000e+00, 1.050000e-12
 3.117554e-02, 0.000000e+00, 6.270000e-12
 3.718748e-02, 0.000000e+00, 4.000000e-11
 4.277409e-02, 0.000000e+00, 2.570000e-10
 4.711653e-02, 0.000000e+00, 1.570000e-09
 5.780350e-02, 0.000000e+00, 8.430000e-09
 7.327210e-02, 0.000000e+00, 3.830000e-08
 9.613596e-02, 0.000000e+00, 1.500000e-07
 9.928671e-02, 0.000000e+00, 5.660000e-07
 7.821860e-02, 0.000000e+00, 1.970000e-06
 6.460420e-02, 0.000000e+00, 7.300000e-06
** ... 11 like lines cut
*Trs, definition=USER
*Material, name=Agilus
*Density
 1.140000e-09
*Depvar
  1,
*Expansion
 1.020000e-04, 4.000000e+01
 1.570000e-04, 8.000000e+01
*Hyperelastic, mooney-rivlin, test data input, moduli=LONG TERM, poisson=5.000e-01
*Uniaxial Test Data
 1.200000e-03, 4.000000e-03
 2.400000e-03, 8.000000e-03
 3.600000e-03, 1.200000e-02
 4.800000e-03, 1.600000e-02
 6.000000e-03, 2.000000e-02
 6.791282e-03, 2.333333e-02
 7.937381e-03, 2.666667e-02
 9.773884e-03, 3.000000e-02
 1.125150e-02, 3.333333e-02
 1.188441e-02, 3.666667e-02
 1.261193e-02, 4.000000e-02
 1.407575e-02, 4.333333e-02
 1.580492e-02, 4.666667e-02
 1.681220e-02, 5.000000e-02
 1.830054e-02, 5.333333e-02
 1.953919e-02, 5.666667e-02
 1.986321e-02, 6.000000e-02
 2.075511e-02, 6.333333e-02
 2.175707e-02, 6.666667e-02
 2.315885e-02, 7.000000e-02
** ... 9 like lines cut
*Viscoelastic, time=PRONY
 6.699011e-02, 0.000000e+00, 1.980000e-12
 2.043012e-02, 0.000000e+00, 4.500000e-12
 4.223279e-02, 0.000000e+00, 8.740000e-12
 4.201268e-02, 0.000000e+00, 2.390000e-11
 5.064544e-02, 0.000000e+00, 6.570000e-11
 5.402699e-02, 0.000000e+00, 1.510000e-10
 5.331245e-02, 0.000000e+00, 3.370000e-10
 5.341537e-02, 0.000000e+00, 7.250000e-10
 5.403276e-02, 0.000000e+00, 1.610000e-09
 5.226224e-02, 0.000000e+00, 3.690000e-09
 4.711878e-02, 0.000000e+00, 9.110000e-09
 4.288666e-02, 0.000000e+00, 2.420000e-08
 4.371754e-02, 0.000000e+00, 6.380000e-08
 4.583567e-02, 0.000000e+00, 1.640000e-07
 4.578316e-02, 0.000000e+00, 4.110000e-07
 4.108623e-02, 0.000000e+00, 9.730000e-07
 3.872610e-02, 0.000000e+00, 2.170000e-06
 3.513419e-02, 0.000000e+00, 5.000000e-06
 2.844161e-02, 0.000000e+00, 1.100000e-05
 2.716971e-02, 0.000000e+00, 2.210000e-05
** ... 11 like lines cut
*Trs, definition=USER
*Material, name=EXP_Agilus_VeroWhiteUltra_666660ppm
*Density
 1.152200e-09
*Depvar
  1,
*Expansion
 1.020000e-04, 4.000000e+01
 1.570000e-04, 8.000000e+01
*Hyperelastic, mooney-rivlin, test data input, moduli=LONG TERM, poisson=5.000e-01
*Uniaxial Test Data
 1.250000e-03, 1.000000e-05
 1.180000e-03, 8.000000e-05
 8.500000e-04, 1.800000e-04
 3.370000e-03, 3.000000e-04
 1.330000e-03, 4.100000e-04
 2.660000e-03, 5.300000e-04
 2.890000e-03, 6.700000e-04
 3.750000e-03, 8.100000e-04
 4.750000e-03, 9.600000e-04
 4.990000e-03, 1.110000e-03
 5.350000e-03, 1.260000e-03
 6.770000e-03, 1.410000e-03
 5.330000e-03, 1.560000e-03
 6.290000e-03, 1.710000e-03
 7.470000e-03, 1.870000e-03
 6.250000e-03, 2.020000e-03
 9.320000e-03, 2.180000e-03
 1.021000e-02, 2.330000e-03
 8.230000e-03, 2.490000e-03
 1.101000e-02, 2.650000e-03
** ... 972 like lines cut
*Viscoelastic, time=PRONY
 5.208712e-02, 0.000000e+00, 1.060000e-16
 4.019943e-02, 0.000000e+00, 6.170000e-16
 4.350352e-02, 0.000000e+00, 3.850000e-15
 5.182202e-02, 0.000000e+00, 2.000000e-14
 5.802583e-02, 0.000000e+00, 1.030000e-13
 6.471299e-02, 0.000000e+00, 5.150000e-13
 6.745419e-02, 0.000000e+00, 2.470000e-12
 6.863131e-02, 0.000000e+00, 1.170000e-11
 6.642708e-02, 0.000000e+00, 5.380000e-11
 6.375869e-02, 0.000000e+00, 2.470000e-10
 6.295894e-02, 0.000000e+00, 1.060000e-09
 5.881001e-02, 0.000000e+00, 4.410000e-09
 5.490486e-02, 0.000000e+00, 1.760000e-08
 4.683525e-02, 0.000000e+00, 6.790000e-08
 3.663348e-02, 0.000000e+00, 2.570000e-07
 2.543298e-02, 0.000000e+00, 9.500000e-07
 1.716899e-02, 0.000000e+00, 3.230000e-06
 1.235042e-02, 0.000000e+00, 7.750000e-06
 1.290914e-02, 0.000000e+00, 1.770000e-05
 1.216037e-02, 0.000000e+00, 4.230000e-05
** ... 11 like lines cut
*Trs, definition=USER
*Material, name=EXP_Agilus_VeroWhiteUltra_333330ppm
*Density
 1.165500e-09
*Depvar
  1,
*Expansion
 1.020000e-04, 4.000000e+01
 1.570000e-04, 8.000000e+01
*Hyperelastic, mooney-rivlin, test data input, moduli=LONG TERM, poisson=5.000e-01
*Uniaxial Test Data
 3.690000e-03, 6.000000e-05
 5.080000e-03, 1.700000e-04
 4.370000e-03, 3.100000e-04
 4.500000e-03, 4.500000e-04
 9.160000e-03, 5.900000e-04
 6.230000e-03, 7.300000e-04
 8.600000e-03, 8.800000e-04
 9.480000e-03, 1.030000e-03
 9.710000e-03, 1.180000e-03
 1.193000e-02, 1.340000e-03
 1.168000e-02, 1.490000e-03
 1.286000e-02, 1.650000e-03
 1.455000e-02, 1.820000e-03
 1.319000e-02, 1.970000e-03
 1.676000e-02, 2.120000e-03
 1.612000e-02, 2.290000e-03
 1.768000e-02, 2.450000e-03
 1.819000e-02, 2.600000e-03
 1.761000e-02, 2.760000e-03
 2.060000e-02, 2.910000e-03
** ... 971 like lines cut
*Viscoelastic, time=PRONY
 2.030807e-02, 0.000000e+00, 2.710000e-20
 1.767046e-02, 0.000000e+00, 1.560000e-19
 1.697761e-02, 0.000000e+00, 8.780000e-19
 2.192602e-02, 0.000000e+00, 4.850000e-18
 2.506008e-02, 0.000000e+00, 2.490000e-17
 2.927288e-02, 0.000000e+00, 1.280000e-16
 3.299917e-02, 0.000000e+00, 6.360000e-16
 3.504137e-02, 0.000000e+00, 3.250000e-15
 3.548113e-02, 0.000000e+00, 1.700000e-14
 3.908807e-02, 0.000000e+00, 9.300000e-14
 4.144119e-02, 0.000000e+00, 5.030000e-13
 4.556507e-02, 0.000000e+00, 2.710000e-12
 4.737493e-02, 0.000000e+00, 1.470000e-11
 4.801150e-02, 0.000000e+00, 7.730000e-11
 4.961058e-02, 0.000000e+00, 4.040000e-10
 5.176995e-02, 0.000000e+00, 2.040000e-09
 5.645764e-02, 0.000000e+00, 9.620000e-09
 6.074982e-02, 0.000000e+00, 4.280000e-08
 6.279859e-02, 0.000000e+00, 1.800000e-07
 5.860156e-02, 0.000000e+00, 7.390000e-07
** ... 11 like lines cut
*Trs, definition=USER
*Material, name=EXP_Agilus_VeroWhiteUltra_500000ppm
*Density
 1.160000e-09
*Depvar
  1,
*Expansion
 1.020000e-04, 4.000000e+01
 1.570000e-04, 8.000000e+01
*Hyperelastic, mooney-rivlin, test data input, moduli=LONG TERM, poisson=5.000e-01
*Uniaxial Test Data
 3.690000e-03, 6.000000e-05
 5.080000e-03, 1.700000e-04
 4.370000e-03, 3.100000e-04
 4.500000e-03, 4.500000e-04
 9.160000e-03, 5.900000e-04
 6.230000e-03, 7.300000e-04
 8.600000e-03, 8.800000e-04
 9.480000e-03, 1.030000e-03
 9.710000e-03, 1.180000e-03
 1.193000e-02, 1.340000e-03
 1.168000e-02, 1.490000e-03
 1.286000e-02, 1.650000e-03
 1.455000e-02, 1.820000e-03
 1.319000e-02, 1.970000e-03
 1.676000e-02, 2.120000e-03
 1.612000e-02, 2.290000e-03
 1.768000e-02, 2.450000e-03
 1.819000e-02, 2.600000e-03
 1.761000e-02, 2.760000e-03
 2.060000e-02, 2.910000e-03
** ... 971 like lines cut
*Viscoelastic, time=PRONY
 3.100747e-02, 0.000000e+00, 1.600000e-21
 2.262450e-02, 0.000000e+00, 1.450000e-20
 2.178648e-02, 0.000000e+00, 1.520000e-19
 2.705580e-02, 0.000000e+00, 1.480000e-18
 3.282817e-02, 0.000000e+00, 1.150000e-17
 3.523161e-02, 0.000000e+00, 9.110000e-17
 3.972568e-02, 0.000000e+00, 6.810000e-16
 4.537660e-02, 0.000000e+00, 4.700000e-15
 4.589743e-02, 0.000000e+00, 3.150000e-14
 4.885603e-02, 0.000000e+00, 2.080000e-13
 5.412058e-02, 0.000000e+00, 1.320000e-12
 5.317621e-02, 0.000000e+00, 7.970000e-12
 5.259147e-02, 0.000000e+00, 4.980000e-11
 5.565394e-02, 0.000000e+00, 3.090000e-10
 5.435549e-02, 0.000000e+00, 1.800000e-09
 5.101302e-02, 0.000000e+00, 1.100000e-08
 5.085602e-02, 0.000000e+00, 6.820000e-08
 4.769093e-02, 0.000000e+00, 4.100000e-07
 4.321935e-02, 0.000000e+00, 2.610000e-06
 4.229960e-02, 0.000000e+00, 1.680000e-05
** ... 11 like lines cut
*Trs, definition=USER
*Material, name=EXP_Agilus_VeroWhiteUltra_835000ppm
*Density
 1.146600e-09
*Depvar
  1,
*Expansion
 1.020000e-04, 4.000000e+01
 1.570000e-04, 8.000000e+01
*Hyperelastic, mooney-rivlin, test data input, moduli=LONG TERM, poisson=5.000e-01
*Uniaxial Test Data
 1.995833e-03, 1.860610e-04
 -6.979170e-05, 2.042420e-04
 2.411460e-04, 2.787880e-04
 3.565625e-03, 3.942420e-04
 9.635420e-05, 5.084850e-04
 1.802080e-04, 6.512120e-04
 1.782813e-03, 8.642420e-04
 1.331250e-03, 1.124242e-03
 8.343750e-04, 1.318182e-03
 2.151563e-03, 1.489091e-03
 1.197396e-03, 1.634848e-03
 6.979170e-04, 1.794545e-03
 3.733854e-03, 1.936667e-03
 1.860417e-03, 2.104242e-03
 2.428125e-03, 2.251818e-03
 3.768229e-03, 2.425758e-03
 3.882292e-03, 2.582121e-03
 2.134896e-03, 2.726364e-03
 5.887500e-03, 2.873636e-03
 3.591146e-03, 3.014242e-03
** ... 640 like lines cut
*Viscoelastic, time=PRONY
 7.089741e-02, 0.000000e+00, 2.540000e-13
 5.330000e-05, 0.000000e+00, 4.070000e-13
 6.486820e-02, 0.000000e+00, 1.080000e-12
 5.224849e-02, 0.000000e+00, 3.960000e-12
 5.120822e-02, 0.000000e+00, 1.180000e-11
 5.120729e-02, 0.000000e+00, 3.510000e-11
 5.608220e-02, 0.000000e+00, 1.060000e-10
 5.762608e-02, 0.000000e+00, 3.380000e-10
 5.549610e-02, 0.000000e+00, 1.010000e-09
 5.024874e-02, 0.000000e+00, 2.770000e-09
 4.992168e-02, 0.000000e+00, 6.560000e-09
 6.246558e-02, 0.000000e+00, 1.910000e-08
 4.886623e-02, 0.000000e+00, 5.850000e-08
 4.440292e-02, 0.000000e+00, 1.520000e-07
 4.741447e-02, 0.000000e+00, 4.640000e-07
 3.915639e-02, 0.000000e+00, 1.470000e-06
 3.429231e-02, 0.000000e+00, 4.330000e-06
 2.904040e-02, 0.000000e+00, 1.230000e-05
 2.726461e-02, 0.000000e+00, 3.430000e-05
 2.157571e-02, 0.000000e+00, 9.660000e-05
** ... 11 like lines cut
*Trs, definition=USER
*Material, name=EXP_Agilus_VeroWhiteUltra_165000ppm
*Density
 1.173400e-09
*Depvar
  1,
*Expansion
 1.020000e-04, 4.000000e+01
 1.570000e-04, 8.000000e+01
*Hyperelastic, mooney-rivlin, test data input, moduli=LONG TERM, poisson=5.000e-01
*Uniaxial Test Data
 2.564063e-03, 3.900000e-04
 1.880000e-03, 3.927270e-04
 2.019792e-03, 4.390910e-04
 4.073438e-03, 5.766670e-04
 5.276042e-03, 7.348480e-04
 4.810938e-03, 9.003030e-04
 9.159375e-03, 1.056667e-03
 8.407292e-03, 1.187576e-03
 9.066146e-03, 1.341515e-03
 1.086667e-02, 1.462121e-03
 1.044375e-02, 1.619697e-03
 1.210208e-02, 1.750909e-03
 1.339010e-02, 1.881212e-03
 1.326875e-02, 2.032424e-03
 1.627292e-02, 2.180000e-03
 1.495156e-02, 2.330606e-03
 1.742448e-02, 2.475152e-03
 1.860833e-02, 2.632727e-03
 1.808542e-02, 2.789697e-03
 2.258542e-02, 2.951818e-03
** ... 598 like lines cut
*Viscoelastic, time=PRONY
 1.807909e-02, 0.000000e+00, 1.820000e-19
 1.479548e-02, 0.000000e+00, 7.790000e-19
 1.370890e-02, 0.000000e+00, 2.950000e-18
 1.048799e-02, 0.000000e+00, 8.850000e-18
 1.572936e-02, 0.000000e+00, 2.670000e-17
 2.264279e-02, 0.000000e+00, 1.260000e-16
 2.700004e-02, 0.000000e+00, 7.280000e-16
 3.142120e-02, 0.000000e+00, 4.330000e-15
 3.964185e-02, 0.000000e+00, 2.930000e-14
 4.859069e-02, 0.000000e+00, 2.390000e-13
 5.406862e-02, 0.000000e+00, 2.090000e-12
 5.944186e-02, 0.000000e+00, 1.840000e-11
 6.395248e-02, 0.000000e+00, 1.600000e-10
 6.589912e-02, 0.000000e+00, 1.330000e-09
 6.661100e-02, 0.000000e+00, 9.740000e-09
 6.624512e-02, 0.000000e+00, 6.050000e-08
 6.536436e-02, 0.000000e+00, 3.160000e-07
 6.011876e-02, 0.000000e+00, 1.410000e-06
 5.358102e-02, 0.000000e+00, 5.480000e-06
 5.009011e-02, 0.000000e+00, 2.150000e-05
** ... 11 like lines cut
*Trs, definition=USER
*Material, name=Mix_Agilus_VeroWhiteUltra_0ppm
*Density
 1.180000e-09
*Depvar
  1,
*Expansion
 1.020000e-04, 4.000000e+01
 1.570000e-04, 8.000000e+01
*Hyperelastic, mooney-rivlin, test data input, moduli=LONG TERM, poisson=5.000e-01
*Uniaxial Test Data
 3.347520e-02, 4.000000e-03
 6.695041e-02, 8.000000e-03
 1.004256e-01, 1.200000e-02
 1.339008e-01, 1.600000e-02
 1.673760e-01, 2.000000e-02
 1.929432e-01, 2.333333e-02
 2.203923e-01, 2.666667e-02
 2.486870e-01, 3.000000e-02
 2.750285e-01, 3.333333e-02
 3.018248e-01, 3.666667e-02
 3.294395e-01, 4.000000e-02
 3.571911e-01, 4.333333e-02
 3.837559e-01, 4.666667e-02
 4.104830e-01, 5.000000e-02
 4.383418e-01, 5.333333e-02
 4.646421e-01, 5.666667e-02
 4.900255e-01, 6.000000e-02
 5.169869e-01, 6.333333e-02
 5.438429e-01, 6.666667e-02
 5.705181e-01, 7.000000e-02
** ... 9 like lines cut
*Viscoelastic, time=PRONY
 2.650133e-08, 0.000000e+00, 6.939986e-29
 8.061990e-11, 0.000000e+00, 5.653767e-25
 7.371042e-08, 0.000000e+00, 2.701130e-23
 2.485435e-05, 0.000000e+00, 4.370994e-26
 3.693971e-07, 0.000000e+00, 4.370980e-25
 4.794339e-07, 0.000000e+00, 4.371572e-24
 3.466244e-07, 0.000000e+00, 2.061949e-21
 1.061491e-07, 0.000000e+00, 8.473093e-22
 2.565282e-02, 0.000000e+00, 8.160952e-20
 9.931775e-08, 0.000000e+00, 4.478521e-20
 4.536940e-02, 0.000000e+00, 1.414601e-14
 5.091920e-02, 0.000000e+00, 1.044667e-16
 5.112722e-02, 0.000000e+00, 1.314671e-12
 6.557894e-02, 0.000000e+00, 3.492793e-11
 3.931511e-02, 0.000000e+00, 2.357116e-10
 4.392483e-07, 0.000000e+00, 4.384180e-14
 2.313163e-01, 0.000000e+00, 6.091208e-08
 1.092525e-09, 0.000000e+00, 4.722732e-09
 1.235673e-06, 0.000000e+00, 4.426243e-11
 2.128159e-01, 0.000000e+00, 3.880569e-06
** ... 11 like lines cut
*Trs, definition=USER
*Material, name=Mix_Agilus_VeroWhiteUltra_20900ppm
*Density
 1.179164e-09
*Depvar
  1,
*Expansion
 1.020000e-04, 4.000000e+01
 1.570000e-04, 8.000000e+01
*Hyperelastic, mooney-rivlin, test data input, moduli=LONG TERM, poisson=5.000e-01
*Uniaxial Test Data
 3.269848e-02, 4.000000e-03
 6.539696e-02, 8.000000e-03
 9.809544e-02, 1.200000e-02
 1.307939e-01, 1.600000e-02
 1.634924e-01, 2.000000e-02
 1.884634e-01, 2.333333e-02
 2.152794e-01, 2.666667e-02
 2.429374e-01, 3.000000e-02
 2.686805e-01, 3.333333e-02
 2.948472e-01, 3.666667e-02
 3.218148e-01, 4.000000e-02
 3.489338e-01, 4.333333e-02
 3.749009e-01, 4.666667e-02
 4.010090e-01, 5.000000e-02
 4.282332e-01, 5.333333e-02
 4.539304e-01, 5.666667e-02
 4.787108e-01, 6.000000e-02
 5.050448e-01, 6.333333e-02
 5.312786e-01, 6.666667e-02
 5.573455e-01, 7.000000e-02
** ... 9 like lines cut
*Viscoelastic, time=PRONY
 9.514054e-03, 0.000000e+00, 2.001648e-28
 4.336076e-02, 0.000000e+00, 5.111472e-28
 8.362512e-02, 0.000000e+00, 5.360838e-27
 5.406589e-03, 0.000000e+00, 5.111584e-26
 6.974016e-07, 0.000000e+00, 1.133514e-24
 1.969291e-06, 0.000000e+00, 1.765457e-23
 4.007462e-06, 0.000000e+00, 5.111472e-23
 4.691636e-05, 0.000000e+00, 5.118319e-22
 2.507748e-02, 0.000000e+00, 1.749488e-19
 4.758326e-02, 0.000000e+00, 9.870101e-17
 2.743154e-02, 0.000000e+00, 1.341558e-14
 1.893232e-02, 0.000000e+00, 8.568611e-14
 3.711119e-02, 0.000000e+00, 1.142299e-12
 2.350147e-02, 0.000000e+00, 8.105184e-12
 5.409277e-02, 0.000000e+00, 7.322138e-11
 6.106220e-02, 0.000000e+00, 1.431491e-09
 8.882450e-02, 0.000000e+00, 1.634432e-08
 1.300842e-01, 0.000000e+00, 2.011917e-07
 2.385141e-02, 0.000000e+00, 3.650308e-07
 6.989635e-02, 0.000000e+00, 1.766587e-06
** ... 11 like lines cut
*Trs, definition=USER
*Material, name=Mix_Agilus_VeroWhiteUltra_62600ppm
*Density
 1.177496e-09
*Depvar
  1,
*Expansion
 1.020000e-04, 4.000000e+01
 1.570000e-04, 8.000000e+01
*Hyperelastic, mooney-rivlin, test data input, moduli=LONG TERM, poisson=5.000e-01
*Uniaxial Test Data
 3.127763e-02, 4.000000e-03
 6.255526e-02, 8.000000e-03
 9.383289e-02, 1.200000e-02
 1.251105e-01, 1.600000e-02
 1.563882e-01, 2.000000e-02
 1.802684e-01, 2.333333e-02
 2.059265e-01, 2.666667e-02
 2.324198e-01, 3.000000e-02
 2.570683e-01, 3.333333e-02
 2.820832e-01, 3.666667e-02
 3.078671e-01, 4.000000e-02
 3.338288e-01, 4.333333e-02
 3.587026e-01, 4.666667e-02
 3.836785e-01, 5.000000e-02
 4.097418e-01, 5.333333e-02
 4.343357e-01, 5.666667e-02
 4.580129e-01, 6.000000e-02
 4.831992e-01, 6.333333e-02
 5.082948e-01, 6.666667e-02
 5.332492e-01, 7.000000e-02
** ... 9 like lines cut
*Viscoelastic, time=PRONY
 7.529053e-07, 0.000000e+00, 1.097128e-28
 1.829379e-02, 0.000000e+00, 8.232967e-28
 4.765696e-02, 0.000000e+00, 7.111561e-27
 5.652615e-06, 0.000000e+00, 2.495180e-21
 3.514694e-08, 0.000000e+00, 7.111034e-25
 2.012481e-03, 0.000000e+00, 2.831162e-19
 7.476869e-03, 0.000000e+00, 6.654710e-21
 1.314661e-02, 0.000000e+00, 2.539300e-18
 1.528515e-02, 0.000000e+00, 3.587039e-19
 4.195333e-02, 0.000000e+00, 6.998100e-17
 4.336865e-02, 0.000000e+00, 4.667689e-15
 1.372275e-02, 0.000000e+00, 3.750869e-14
 7.747349e-02, 0.000000e+00, 8.328777e-13
 1.453436e-11, 0.000000e+00, 4.866115e-12
 1.108489e-01, 0.000000e+00, 1.639555e-10
 6.154462e-10, 0.000000e+00, 7.129215e-14
 1.322695e-01, 0.000000e+00, 1.737914e-08
 8.585997e-02, 0.000000e+00, 1.731458e-07
 2.058739e-08, 0.000000e+00, 7.321868e-08
 1.647892e-01, 0.000000e+00, 1.268041e-06
** ... 11 like lines cut
*Trs, definition=USER
*Material, name=Mix_Agilus_VeroWhiteUltra_104400ppm
*Density
 1.175824e-09
*Depvar
  1,
*Expansion
 1.020000e-04, 4.000000e+01
 1.570000e-04, 8.000000e+01
*Hyperelastic, mooney-rivlin, test data input, moduli=LONG TERM, poisson=5.000e-01
*Uniaxial Test Data
 2.998818e-02, 4.000000e-03
 5.997636e-02, 8.000000e-03
 8.996454e-02, 1.200000e-02
 1.199527e-01, 1.600000e-02
 1.499409e-01, 2.000000e-02
 1.728313e-01, 2.333333e-02
 1.974386e-01, 2.666667e-02
 2.228748e-01, 3.000000e-02
 2.465300e-01, 3.333333e-02
 2.704996e-01, 3.666667e-02
 2.952093e-01, 4.000000e-02
 3.201208e-01, 4.333333e-02
 3.440024e-01, 4.666667e-02
 3.679507e-01, 5.000000e-02
 3.929604e-01, 5.333333e-02
 4.165530e-01, 5.666667e-02
 4.392291e-01, 6.000000e-02
 4.633739e-01, 6.333333e-02
 4.874366e-01, 6.666667e-02
 5.113812e-01, 7.000000e-02
** ... 9 like lines cut
*Viscoelastic, time=PRONY
 4.068982e-02, 0.000000e+00, 2.483402e-28
 4.411734e-02, 0.000000e+00, 1.087511e-27
 7.116353e-02, 0.000000e+00, 1.039914e-26
 1.683228e-06, 0.000000e+00, 1.015978e-25
 2.667963e-09, 0.000000e+00, 2.573480e-21
 5.013393e-08, 0.000000e+00, 1.029446e-23
 2.112106e-07, 0.000000e+00, 1.016068e-22
 4.317352e-03, 0.000000e+00, 1.015819e-21
 3.686950e-02, 0.000000e+00, 5.813990e-19
 4.990979e-02, 0.000000e+00, 1.933811e-16
 3.341383e-02, 0.000000e+00, 4.574110e-15
 5.277467e-02, 0.000000e+00, 1.864869e-13
 5.449542e-10, 0.000000e+00, 2.395618e-13
 9.567921e-02, 0.000000e+00, 1.895419e-11
 5.033827e-03, 0.000000e+00, 4.134504e-13
 8.549513e-02, 0.000000e+00, 3.136594e-09
 8.049385e-02, 0.000000e+00, 2.620178e-08
 9.358118e-02, 0.000000e+00, 3.164548e-07
 1.302707e-01, 0.000000e+00, 2.112829e-06
 2.642765e-09, 0.000000e+00, 2.159308e-06
** ... 11 like lines cut
*Trs, definition=USER
*Material, name=Mix_Agilus_VeroWhiteUltra_146100ppm
*Density
 1.174156e-09
*Depvar
  1,
*Expansion
 1.020000e-04, 4.000000e+01
 1.570000e-04, 8.000000e+01
*Hyperelastic, mooney-rivlin, test data input, moduli=LONG TERM, poisson=5.000e-01
*Uniaxial Test Data
 2.876636e-02, 4.000000e-03
 5.753271e-02, 8.000000e-03
 8.629907e-02, 1.200000e-02
 1.150654e-01, 1.600000e-02
 1.438318e-01, 2.000000e-02
 1.657843e-01, 2.333333e-02
 1.893958e-01, 2.666667e-02
 2.138304e-01, 3.000000e-02
 2.365443e-01, 3.333333e-02
 2.595235e-01, 3.666667e-02
 2.832154e-01, 4.000000e-02
 3.071316e-01, 4.333333e-02
 3.300730e-01, 4.666667e-02
 3.530477e-01, 5.000000e-02
 3.770591e-01, 5.333333e-02
 3.997030e-01, 5.666667e-02
 4.214304e-01, 6.000000e-02
 4.445883e-01, 6.333333e-02
 4.676723e-01, 6.666667e-02
 4.906602e-01, 7.000000e-02
** ... 9 like lines cut
*Viscoelastic, time=PRONY
 7.994636e-05, 0.000000e+00, 9.570591e-27
 1.988620e-02, 0.000000e+00, 1.996995e-27
 5.062918e-02, 0.000000e+00, 1.491026e-26
 2.689986e-05, 0.000000e+00, 1.491072e-25
 1.620871e-07, 0.000000e+00, 1.491026e-24
 2.242302e-08, 0.000000e+00, 3.203493e-22
 1.429130e-02, 0.000000e+00, 5.911460e-21
 3.423089e-02, 0.000000e+00, 3.035366e-17
 4.430626e-06, 0.000000e+00, 4.999903e-20
 3.460912e-02, 0.000000e+00, 2.099077e-18
 6.168274e-02, 0.000000e+00, 1.442061e-15
 8.535168e-02, 0.000000e+00, 1.934927e-13
 3.388004e-07, 0.000000e+00, 6.864441e-13
 7.638522e-02, 0.000000e+00, 1.925842e-11
 4.975644e-02, 0.000000e+00, 2.577342e-10
 6.782924e-02, 0.000000e+00, 2.936544e-09
 1.011947e-01, 0.000000e+00, 3.925925e-08
 1.162195e-01, 0.000000e+00, 4.785212e-07
 8.536509e-02, 0.000000e+00, 3.361549e-06
 2.943183e-02, 0.000000e+00, 7.635988e-06
** ... 11 like lines cut
*Trs, definition=USER
*Material, name=Mix_Agilus_VeroWhiteUltra_187900ppm
*Density
 1.172484e-09
*Depvar
  1,
*Expansion
 1.020000e-04, 4.000000e+01
 1.570000e-04, 8.000000e+01
*Hyperelastic, mooney-rivlin, test data input, moduli=LONG TERM, poisson=5.000e-01
*Uniaxial Test Data
 2.753674e-02, 4.000000e-03
 5.507349e-02, 8.000000e-03
 8.261023e-02, 1.200000e-02
 1.101470e-01, 1.600000e-02
 1.376837e-01, 2.000000e-02
 1.586923e-01, 2.333333e-02
 1.813018e-01, 2.666667e-02
 2.047283e-01, 3.000000e-02
 2.264950e-01, 3.333333e-02
 2.484774e-01, 3.666667e-02
 2.711450e-01, 4.000000e-02
 2.940597e-01, 4.333333e-02
 3.160549e-01, 4.666667e-02
 3.380497e-01, 5.000000e-02
 3.610565e-01, 5.333333e-02
 3.827456e-01, 5.666667e-02
 4.035183e-01, 6.000000e-02
 4.256830e-01, 6.333333e-02
 4.477820e-01, 6.666667e-02
 4.698070e-01, 7.000000e-02
** ... 9 like lines cut
*Viscoelastic, time=PRONY
 1.092459e-01, 0.000000e+00, 2.778463e-28
 2.413451e-02, 0.000000e+00, 6.224137e-27
 2.343806e-10, 0.000000e+00, 2.261732e-26
 1.971368e-03, 0.000000e+00, 2.259120e-25
 3.647769e-06, 0.000000e+00, 4.361501e-21
 1.028098e-02, 0.000000e+00, 9.710400e-21
 2.067535e-06, 0.000000e+00, 2.259120e-22
 3.821866e-02, 0.000000e+00, 1.747018e-17
 2.604713e-02, 0.000000e+00, 3.835803e-19
 5.081956e-02, 0.000000e+00, 5.559114e-16
 1.733236e-09, 0.000000e+00, 1.569950e-15
 4.305238e-02, 0.000000e+00, 1.339522e-14
 7.239664e-02, 0.000000e+00, 4.566627e-13
 6.578570e-02, 0.000000e+00, 2.004997e-11
 8.758782e-02, 0.000000e+00, 5.168673e-10
 2.843672e-11, 0.000000e+00, 1.386643e-10
 1.081833e-01, 0.000000e+00, 3.118080e-08
 9.543894e-02, 0.000000e+00, 3.832165e-07
 1.352362e-01, 0.000000e+00, 5.038377e-06
 6.343312e-12, 0.000000e+00, 6.842260e-06
** ... 11 like lines cut
*Trs, definition=USER
*Material, name=Mix_Agilus_VeroWhiteUltra_229600ppm
*Density
 1.170816e-09
*Depvar
  1,
*Expansion
 1.020000e-04, 4.000000e+01
 1.570000e-04, 8.000000e+01
*Hyperelastic, mooney-rivlin, test data input, moduli=LONG TERM, poisson=5.000e-01
*Uniaxial Test Data
 2.626475e-02, 4.000000e-03
 5.252950e-02, 8.000000e-03
 7.879425e-02, 1.200000e-02
 1.050590e-01, 1.600000e-02
 1.313237e-01, 2.000000e-02
 1.513559e-01, 2.333333e-02
 1.729287e-01, 2.666667e-02
 1.953125e-01, 3.000000e-02
 2.160993e-01, 3.333333e-02
 2.370506e-01, 3.666667e-02
 2.586585e-01, 4.000000e-02
 2.805373e-01, 4.333333e-02
 3.015537e-01, 4.666667e-02
 3.225348e-01, 5.000000e-02
 3.445023e-01, 5.333333e-02
 3.652037e-01, 5.666667e-02
 3.849888e-01, 6.000000e-02
 4.061261e-01, 6.333333e-02
 4.272061e-01, 6.666667e-02
 4.482351e-01, 7.000000e-02
** ... 9 like lines cut
*Viscoelastic, time=PRONY
 9.279702e-05, 0.000000e+00, 9.772448e-27
 1.348580e-02, 0.000000e+00, 3.118801e-26
 2.228337e-06, 0.000000e+00, 3.706490e-26
 1.263162e-06, 0.000000e+00, 1.367033e-24
 2.674762e-06, 0.000000e+00, 3.537625e-24
 2.884423e-02, 0.000000e+00, 5.451598e-19
 1.491023e-02, 0.000000e+00, 3.396644e-20
 4.635174e-02, 0.000000e+00, 1.547044e-17
 1.756037e-08, 0.000000e+00, 3.577115e-17
 5.806888e-09, 0.000000e+00, 3.027384e-15
 6.581153e-02, 0.000000e+00, 6.982074e-16
 8.799778e-02, 0.000000e+00, 4.705176e-13
 5.269118e-02, 0.000000e+00, 1.454874e-14
 1.157669e-01, 0.000000e+00, 3.287070e-11
 2.234816e-09, 0.000000e+00, 3.841042e-14
 1.249985e-01, 0.000000e+00, 4.590136e-09
 1.952269e-11, 0.000000e+00, 3.631658e-12
 1.346306e-01, 0.000000e+00, 1.681358e-07
 1.321485e-01, 0.000000e+00, 3.134107e-06
 6.052997e-02, 0.000000e+00, 3.756982e-05
** ... 11 like lines cut
*Trs, definition=USER
*Material, name=Mix_Agilus_VeroWhiteUltra_271400ppm
*Density
 1.169144e-09
*Depvar
  1,
*Expansion
 1.020000e-04, 4.000000e+01
 1.570000e-04, 8.000000e+01
*Hyperelastic, mooney-rivlin, test data input, moduli=LONG TERM, poisson=5.000e-01
*Uniaxial Test Data
 2.493481e-02, 4.000000e-03
 4.986963e-02, 8.000000e-03
 7.480444e-02, 1.200000e-02
 9.973925e-02, 1.600000e-02
 1.246741e-01, 2.000000e-02
 1.436853e-01, 2.333333e-02
 1.641743e-01, 2.666667e-02
 1.854678e-01, 3.000000e-02
 2.052301e-01, 3.333333e-02
 2.251033e-01, 3.666667e-02
 2.456033e-01, 4.000000e-02
 2.663988e-01, 4.333333e-02
 2.863918e-01, 4.666667e-02
 3.063132e-01, 5.000000e-02
 3.271941e-01, 5.333333e-02
 3.468627e-01, 5.666667e-02
 3.656152e-01, 6.000000e-02
 3.856783e-01, 6.333333e-02
 4.056930e-01, 6.666667e-02
 4.256806e-01, 7.000000e-02
** ... 9 like lines cut
*Viscoelastic, time=PRONY
 5.362304e-03, 0.000000e+00, 5.761887e-28
 6.514261e-11, 0.000000e+00, 1.278127e-23
 5.469155e-13, 0.000000e+00, 3.164018e-23
 7.492451e-11, 0.000000e+00, 5.488127e-23
 7.039256e-11, 0.000000e+00, 6.598317e-24
 1.214635e-02, 0.000000e+00, 4.109751e-20
 1.061839e-02, 0.000000e+00, 1.099603e-19
 1.540225e-03, 0.000000e+00, 2.477092e-20
 3.628227e-02, 0.000000e+00, 1.366952e-17
 2.450292e-02, 0.000000e+00, 1.060943e-18
 6.153196e-02, 0.000000e+00, 2.338865e-15
 4.288144e-02, 0.000000e+00, 1.915944e-16
 6.731419e-02, 0.000000e+00, 5.649957e-14
 7.760438e-02, 0.000000e+00, 1.353999e-12
 7.331814e-02, 0.000000e+00, 2.627919e-11
 7.006532e-02, 0.000000e+00, 4.223631e-10
 8.066962e-02, 0.000000e+00, 6.882667e-09
 8.778330e-02, 0.000000e+00, 9.314375e-08
 9.155120e-02, 0.000000e+00, 1.056732e-06
 1.023138e-01, 0.000000e+00, 9.667530e-06
** ... 11 like lines cut
*Trs, definition=USER
*Material, name=Mix_Agilus_VeroWhiteUltra_313100ppm
*Density
 1.167476e-09
*Depvar
  1,
*Expansion
 1.020000e-04, 4.000000e+01
 1.570000e-04, 8.000000e+01
*Hyperelastic, mooney-rivlin, test data input, moduli=LONG TERM, poisson=5.000e-01
*Uniaxial Test Data
 2.356629e-02, 4.000000e-03
 4.713258e-02, 8.000000e-03
 7.069887e-02, 1.200000e-02
 9.426516e-02, 1.600000e-02
 1.178314e-01, 2.000000e-02
 1.357921e-01, 2.333333e-02
 1.551658e-01, 2.666667e-02
 1.753375e-01, 3.000000e-02
 1.940455e-01, 3.333333e-02
 2.128093e-01, 3.666667e-02
 2.321692e-01, 4.000000e-02
 2.518501e-01, 4.333333e-02
 2.707901e-01, 4.666667e-02
 2.896208e-01, 5.000000e-02
 3.093836e-01, 5.333333e-02
 3.279896e-01, 5.666667e-02
 3.456795e-01, 6.000000e-02
 3.646372e-01, 6.333333e-02
 3.835557e-01, 6.666667e-02
 4.024716e-01, 7.000000e-02
** ... 9 like lines cut
*Viscoelastic, time=PRONY
 5.734377e-12, 0.000000e+00, 1.022204e-27
 5.585594e-08, 0.000000e+00, 2.356941e-21
 2.572234e-04, 0.000000e+00, 9.768764e-26
 1.719028e-10, 0.000000e+00, 9.775836e-25
 9.427574e-03, 0.000000e+00, 3.249068e-19
 6.129689e-11, 0.000000e+00, 1.389443e-22
 1.871797e-02, 0.000000e+00, 5.281252e-20
 2.260624e-02, 0.000000e+00, 1.247416e-18
 3.744204e-02, 0.000000e+00, 1.467470e-17
 5.673437e-02, 0.000000e+00, 8.343274e-16
 3.877194e-08, 0.000000e+00, 9.768729e-18
 2.577501e-02, 0.000000e+00, 1.093574e-16
 6.984732e-02, 0.000000e+00, 1.342675e-14
 7.814724e-02, 0.000000e+00, 3.558076e-13
 8.192230e-02, 0.000000e+00, 7.402123e-12
 7.410804e-02, 0.000000e+00, 1.266890e-10
 7.277185e-02, 0.000000e+00, 2.165286e-09
 8.510980e-02, 0.000000e+00, 3.205711e-08
 9.898671e-02, 0.000000e+00, 4.136984e-07
 9.283389e-02, 0.000000e+00, 4.347786e-06
** ... 11 like lines cut
*Trs, definition=USER
*Material, name=Mix_Agilus_VeroWhiteUltra_354900ppm
*Density
 1.165804e-09
*Depvar
  1,
*Expansion
 1.020000e-04, 4.000000e+01
 1.570000e-04, 8.000000e+01
*Hyperelastic, mooney-rivlin, test data input, moduli=LONG TERM, poisson=5.000e-01
*Uniaxial Test Data
 2.217200e-02, 4.000000e-03
 4.434399e-02, 8.000000e-03
 6.651599e-02, 1.200000e-02
 8.868798e-02, 1.600000e-02
 1.108600e-01, 2.000000e-02
 1.277503e-01, 2.333333e-02
 1.459877e-01, 2.666667e-02
 1.650164e-01, 3.000000e-02
 1.826503e-01, 3.333333e-02
 2.002838e-01, 3.666667e-02
 2.184822e-01, 4.000000e-02
 2.370275e-01, 4.333333e-02
 2.548945e-01, 4.666667e-02
 2.726142e-01, 5.000000e-02
 2.912377e-01, 5.333333e-02
 3.087611e-01, 5.666667e-02
 3.253684e-01, 6.000000e-02
 3.431999e-01, 6.333333e-02
 3.610015e-01, 6.666667e-02
 3.788256e-01, 7.000000e-02
** ... 9 like lines cut
*Viscoelastic, time=PRONY
 4.007931e-13, 0.000000e+00, 3.336500e-23
 6.307435e-09, 0.000000e+00, 6.611410e-22
 2.456683e-07, 0.000000e+00, 1.169075e-24
 2.689360e-15, 0.000000e+00, 2.742542e-21
 1.658239e-02, 0.000000e+00, 1.104130e-18
 1.644622e-02, 0.000000e+00, 7.063833e-20
 1.269454e-02, 0.000000e+00, 3.566858e-19
 3.013673e-02, 0.000000e+00, 1.293144e-17
 1.821019e-02, 0.000000e+00, 6.827558e-17
 6.826945e-03, 0.000000e+00, 3.209663e-18
 6.061980e-02, 0.000000e+00, 1.482205e-15
 2.733255e-02, 0.000000e+00, 1.767776e-16
 7.248629e-02, 0.000000e+00, 2.301510e-14
 7.951372e-02, 0.000000e+00, 4.800748e-13
 8.574913e-02, 0.000000e+00, 9.176820e-12
 7.749797e-02, 0.000000e+00, 1.592528e-10
 7.269971e-02, 0.000000e+00, 2.743227e-09
 7.922451e-02, 0.000000e+00, 3.990610e-08
 8.948481e-02, 0.000000e+00, 4.693122e-07
 8.753591e-02, 0.000000e+00, 4.742235e-06
** ... 11 like lines cut
*Trs, definition=USER
*Material, name=Mix_Agilus_VeroWhiteUltra_396600ppm
*Density
 1.164136e-09
*Depvar
  1,
*Expansion
 1.020000e-04, 4.000000e+01
 1.570000e-04, 8.000000e+01
*Hyperelastic, mooney-rivlin, test data input, moduli=LONG TERM, poisson=5.000e-01
*Uniaxial Test Data
 2.077430e-02, 4.000000e-03
 4.154859e-02, 8.000000e-03
 6.232289e-02, 1.200000e-02
 8.309719e-02, 1.600000e-02
 1.038715e-01, 2.000000e-02
 1.196889e-01, 2.333333e-02
 1.367872e-01, 2.666667e-02
 1.546701e-01, 3.000000e-02
 1.712272e-01, 3.333333e-02
 1.877278e-01, 3.666667e-02
 2.047618e-01, 4.000000e-02
 2.221687e-01, 4.333333e-02
 2.389602e-01, 4.666667e-02
 2.555660e-01, 5.000000e-02
 2.730476e-01, 5.333333e-02
 2.894856e-01, 5.666667e-02
 3.050077e-01, 6.000000e-02
 3.217103e-01, 6.333333e-02
 3.383922e-01, 6.666667e-02
 3.551218e-01, 7.000000e-02
** ... 9 like lines cut
*Viscoelastic, time=PRONY
 5.969538e-06, 0.000000e+00, 3.453891e-24
 3.930067e-07, 0.000000e+00, 2.559970e-22
 7.804203e-07, 0.000000e+00, 2.204228e-20
 4.236719e-08, 0.000000e+00, 3.273035e-24
 2.976275e-02, 0.000000e+00, 1.735232e-19
 2.177607e-06, 0.000000e+00, 3.281169e-22
 5.914345e-02, 0.000000e+00, 7.214051e-18
 4.705139e-07, 0.000000e+00, 3.774200e-16
 7.787947e-02, 0.000000e+00, 1.590942e-14
 7.254724e-02, 0.000000e+00, 3.249671e-16
 9.625269e-07, 0.000000e+00, 3.268854e-17
 4.414039e-06, 0.000000e+00, 3.338324e-16
 2.239610e-02, 0.000000e+00, 3.268745e-15
 6.146087e-02, 0.000000e+00, 2.292688e-13
 3.998519e-02, 0.000000e+00, 4.282913e-10
 9.205892e-02, 0.000000e+00, 3.268102e-12
 7.889159e-02, 0.000000e+00, 5.951060e-11
 7.665542e-02, 0.000000e+00, 3.780303e-09
 9.681931e-02, 0.000000e+00, 8.607726e-08
 1.114380e-01, 0.000000e+00, 1.872949e-06
** ... 11 like lines cut
*Trs, definition=USER
*Material, name=Mix_Agilus_VeroWhiteUltra_438400ppm
*Density
 1.162464e-09
*Depvar
  1,
*Expansion
 1.020000e-04, 4.000000e+01
 1.570000e-04, 8.000000e+01
*Hyperelastic, mooney-rivlin, test data input, moduli=LONG TERM, poisson=5.000e-01
*Uniaxial Test Data
 1.825965e-02, 4.000000e-03
 3.651930e-02, 8.000000e-03
 5.477894e-02, 1.200000e-02
 7.303859e-02, 1.600000e-02
 9.129824e-02, 2.000000e-02
 1.051853e-01, 2.333333e-02
 1.202343e-01, 2.666667e-02
 1.360558e-01, 3.000000e-02
 1.506757e-01, 3.333333e-02
 1.651377e-01, 3.666667e-02
 1.800769e-01, 4.000000e-02
 1.954356e-01, 4.333333e-02
 2.102921e-01, 4.666667e-02
 2.248941e-01, 5.000000e-02
 2.403210e-01, 5.333333e-02
 2.548065e-01, 5.666667e-02
 2.683761e-01, 6.000000e-02
 2.830475e-01, 6.333333e-02
 2.977151e-01, 6.666667e-02
 3.124756e-01, 7.000000e-02
** ... 9 like lines cut
*Viscoelastic, time=PRONY
 3.569772e-06, 0.000000e+00, 8.158744e-23
 4.428475e-03, 0.000000e+00, 4.782126e-21
 4.576920e-07, 0.000000e+00, 3.041992e-24
 1.266132e-07, 0.000000e+00, 1.526499e-23
 6.915361e-02, 0.000000e+00, 1.801571e-18
 1.001819e-07, 0.000000e+00, 3.533618e-18
 8.345536e-02, 0.000000e+00, 2.659046e-16
 1.233438e-08, 0.000000e+00, 2.420248e-19
 9.962933e-07, 0.000000e+00, 6.544039e-19
 3.315922e-08, 0.000000e+00, 6.553856e-18
 5.490271e-02, 0.000000e+00, 6.062968e-14
 4.532214e-02, 0.000000e+00, 3.806700e-15
 3.348187e-02, 0.000000e+00, 1.222242e-14
 6.917886e-02, 0.000000e+00, 5.286776e-13
 7.379818e-02, 0.000000e+00, 9.379638e-11
 8.764422e-02, 0.000000e+00, 6.543946e-12
 6.747655e-02, 0.000000e+00, 9.065342e-10
 9.425620e-02, 0.000000e+00, 2.007666e-08
 3.283437e-02, 0.000000e+00, 7.196880e-07
 5.507987e-07, 0.000000e+00, 7.722364e-07
** ... 11 like lines cut
*Trs, definition=USER
*Material, name=Mix_Agilus_VeroWhiteUltra_480100ppm
*Density
 1.160796e-09
*Depvar
  1,
*Expansion
 1.020000e-04, 4.000000e+01
 1.570000e-04, 8.000000e+01
*Hyperelastic, mooney-rivlin, test data input, moduli=LONG TERM, poisson=5.000e-01
*Uniaxial Test Data
 1.543256e-02, 4.000000e-03
 3.086512e-02, 8.000000e-03
 4.629769e-02, 1.200000e-02
 6.173025e-02, 1.600000e-02
 7.716281e-02, 2.000000e-02
 8.887967e-02, 2.333333e-02
 1.016247e-01, 2.666667e-02
 1.151286e-01, 3.000000e-02
 1.275706e-01, 3.333333e-02
 1.397409e-01, 3.666667e-02
 1.523250e-01, 4.000000e-02
 1.653811e-01, 4.333333e-02
 1.780622e-01, 4.666667e-02
 1.904112e-01, 5.000000e-02
 2.035283e-01, 5.333333e-02
 2.158185e-01, 5.666667e-02
 2.271931e-01, 6.000000e-02
 2.395810e-01, 6.333333e-02
 2.519839e-01, 6.666667e-02
 2.645307e-01, 7.000000e-02
** ... 9 like lines cut
*Viscoelastic, time=PRONY
 4.328263e-06, 0.000000e+00, 1.408180e-23
 1.226777e-05, 0.000000e+00, 1.407216e-22
 3.351235e-05, 0.000000e+00, 1.396956e-21
 7.520690e-05, 0.000000e+00, 1.268505e-20
 4.466600e-02, 0.000000e+00, 1.059531e-18
 2.620378e-02, 0.000000e+00, 4.205736e-17
 9.080680e-02, 0.000000e+00, 6.076155e-16
 1.959003e-02, 0.000000e+00, 8.603723e-18
 2.598406e-02, 0.000000e+00, 8.716154e-15
 3.869981e-02, 0.000000e+00, 1.831716e-14
 3.007977e-02, 0.000000e+00, 4.508674e-14
 2.874092e-02, 0.000000e+00, 2.749423e-13
 3.213884e-02, 0.000000e+00, 1.906286e-13
 3.895675e-02, 0.000000e+00, 4.556462e-12
 4.955061e-02, 0.000000e+00, 1.572307e-12
 5.880779e-02, 0.000000e+00, 2.609975e-11
 7.235134e-02, 0.000000e+00, 1.407120e-10
 6.104357e-02, 0.000000e+00, 1.838905e-09
 7.016027e-02, 0.000000e+00, 1.407386e-08
 7.165229e-02, 0.000000e+00, 3.006628e-07
** ... 11 like lines cut
*Trs, definition=USER
*Material, name=Mix_Agilus_VeroWhiteUltra_521900ppm
*Density
 1.159124e-09
*Depvar
  1,
*Expansion
 1.020000e-04, 4.000000e+01
 1.570000e-04, 8.000000e+01
*Hyperelastic, mooney-rivlin, test data input, moduli=LONG TERM, poisson=5.000e-01
*Uniaxial Test Data
 1.276273e-02, 4.000000e-03
 2.552547e-02, 8.000000e-03
 3.828820e-02, 1.200000e-02
 5.105094e-02, 1.600000e-02
 6.381367e-02, 2.000000e-02
 7.348104e-02, 2.333333e-02
 8.405029e-02, 2.666667e-02
 9.536556e-02, 3.000000e-02
 1.057508e-01, 3.333333e-02
 1.157568e-01, 3.666667e-02
 1.261168e-01, 4.000000e-02
 1.369983e-01, 4.333333e-02
 1.476250e-01, 4.666667e-02
 1.578465e-01, 5.000000e-02
 1.687822e-01, 5.333333e-02
 1.789993e-01, 5.666667e-02
 1.883009e-01, 6.000000e-02
 1.985323e-01, 6.333333e-02
 2.087966e-01, 6.666667e-02
 2.192527e-01, 7.000000e-02
** ... 9 like lines cut
*Viscoelastic, time=PRONY
 3.902609e-09, 0.000000e+00, 4.202147e-25
 1.592452e-07, 0.000000e+00, 3.138161e-21
 1.647382e-07, 0.000000e+00, 1.331701e-19
 3.169077e-08, 0.000000e+00, 2.283188e-17
 4.015954e-02, 0.000000e+00, 1.542298e-18
 3.685246e-03, 0.000000e+00, 3.305864e-21
 6.408222e-02, 0.000000e+00, 3.850248e-17
 1.410765e-07, 0.000000e+00, 8.294420e-15
 4.338570e-08, 0.000000e+00, 3.311600e-18
 1.393994e-08, 0.000000e+00, 3.305768e-17
 6.067202e-02, 0.000000e+00, 7.991789e-16
 6.627786e-02, 0.000000e+00, 8.125244e-15
 5.614835e-02, 0.000000e+00, 6.029166e-14
 6.668620e-02, 0.000000e+00, 3.305807e-13
 7.818703e-02, 0.000000e+00, 3.305696e-12
 8.474911e-02, 0.000000e+00, 3.305729e-11
 8.484634e-02, 0.000000e+00, 4.242144e-10
 6.257707e-02, 0.000000e+00, 4.531429e-09
 8.280878e-02, 0.000000e+00, 8.532827e-08
 8.263733e-02, 0.000000e+00, 2.040450e-06
** ... 11 like lines cut
*Trs, definition=USER
*Material, name=Mix_Agilus_VeroWhiteUltra_563600ppm
*Density
 1.157456e-09
*Depvar
  1,
*Expansion
 1.020000e-04, 4.000000e+01
 1.570000e-04, 8.000000e+01
*Hyperelastic, mooney-rivlin, test data input, moduli=LONG TERM, poisson=5.000e-01
*Uniaxial Test Data
 1.031518e-02, 4.000000e-03
 2.063037e-02, 8.000000e-03
 3.094555e-02, 1.200000e-02
 4.126074e-02, 1.600000e-02
 5.157592e-02, 2.000000e-02
 5.936444e-02, 2.333333e-02
 6.793903e-02, 2.666667e-02
 7.724789e-02, 3.000000e-02
 8.574758e-02, 3.333333e-02
 9.376957e-02, 3.666667e-02
 1.020906e-01, 4.000000e-02
 1.109786e-01, 4.333333e-02
 1.197219e-01, 4.666667e-02
 1.279930e-01, 5.000000e-02
 1.369289e-01, 5.333333e-02
 1.452454e-01, 5.666667e-02
 1.526468e-01, 6.000000e-02
 1.609012e-01, 6.333333e-02
 1.692049e-01, 6.666667e-02
 1.777444e-01, 7.000000e-02
** ... 9 like lines cut
*Viscoelastic, time=PRONY
 4.404332e-13, 0.000000e+00, 3.069310e-25
 3.182027e-03, 0.000000e+00, 3.376930e-24
 1.085089e-08, 0.000000e+00, 1.590621e-23
 4.557961e-06, 0.000000e+00, 9.325207e-23
 6.301241e-02, 0.000000e+00, 5.878393e-18
 7.097249e-02, 0.000000e+00, 2.128199e-16
 7.805713e-02, 0.000000e+00, 4.548602e-15
 3.968088e-02, 0.000000e+00, 3.620628e-14
 2.107588e-02, 0.000000e+00, 9.762837e-13
 4.762652e-02, 0.000000e+00, 8.052417e-13
 2.153392e-02, 0.000000e+00, 3.038492e-13
 2.792245e-02, 0.000000e+00, 5.135340e-12
 4.396180e-02, 0.000000e+00, 8.609533e-14
 3.122765e-02, 0.000000e+00, 1.764237e-11
 3.624437e-02, 0.000000e+00, 8.608434e-12
 7.593920e-02, 0.000000e+00, 9.820251e-11
 7.593491e-02, 0.000000e+00, 8.608622e-10
 6.283465e-02, 0.000000e+00, 8.618230e-09
 5.324945e-02, 0.000000e+00, 8.607721e-08
 5.575822e-02, 0.000000e+00, 8.608234e-07
** ... 11 like lines cut
*Trs, definition=USER
*Material, name=Mix_Agilus_VeroWhiteUltra_605400ppm
*Density
 1.155784e-09
*Depvar
  1,
*Expansion
 1.020000e-04, 4.000000e+01
 1.570000e-04, 8.000000e+01
*Hyperelastic, mooney-rivlin, test data input, moduli=LONG TERM, poisson=5.000e-01
*Uniaxial Test Data
 8.056943e-03, 4.000000e-03
 1.611389e-02, 8.000000e-03
 2.417083e-02, 1.200000e-02
 3.222777e-02, 1.600000e-02
 4.028472e-02, 2.000000e-02
 4.633971e-02, 2.333333e-02
 5.307393e-02, 2.666667e-02
 6.053154e-02, 3.000000e-02
 6.729155e-02, 3.333333e-02
 7.348294e-02, 3.666667e-02
 7.992270e-02, 4.000000e-02
 8.697141e-02, 4.333333e-02
 9.397698e-02, 4.666667e-02
 1.004485e-01, 5.000000e-02
 1.075393e-01, 5.333333e-02
 1.141024e-01, 5.666667e-02
 1.197503e-01, 6.000000e-02
 1.261807e-01, 6.333333e-02
 1.326754e-01, 6.666667e-02
 1.394466e-01, 7.000000e-02
** ... 9 like lines cut
*Viscoelastic, time=PRONY
 8.798436e-07, 0.000000e+00, 5.818911e-25
 1.376192e-04, 0.000000e+00, 2.133304e-19
 7.774423e-12, 0.000000e+00, 1.011589e-22
 2.497757e-10, 0.000000e+00, 2.559700e-22
 1.195618e-13, 0.000000e+00, 1.239247e-20
 4.960569e-02, 0.000000e+00, 2.177925e-16
 6.284474e-02, 0.000000e+00, 1.370379e-17
 5.183531e-07, 0.000000e+00, 1.983133e-13
 3.281795e-09, 0.000000e+00, 2.969949e-12
 8.726156e-09, 0.000000e+00, 2.559960e-16
 7.037653e-02, 0.000000e+00, 2.559684e-15
 7.580055e-02, 0.000000e+00, 2.878479e-14
 8.170451e-02, 0.000000e+00, 2.559671e-13
 9.083595e-02, 0.000000e+00, 2.559669e-12
 8.011475e-02, 0.000000e+00, 2.559668e-11
 1.033144e-01, 0.000000e+00, 2.559669e-10
 1.047601e-01, 0.000000e+00, 5.978436e-09
 7.005138e-02, 0.000000e+00, 1.806277e-07
 2.360968e-10, 0.000000e+00, 9.055371e-07
 5.353048e-02, 0.000000e+00, 2.559728e-06
** ... 11 like lines cut
*Trs, definition=USER
*Material, name=Mix_Agilus_VeroWhiteUltra_647100ppm
*Density
 1.154116e-09
*Depvar
  1,
*Expansion
 1.020000e-04, 4.000000e+01
 1.570000e-04, 8.000000e+01
*Hyperelastic, mooney-rivlin, test data input, moduli=LONG TERM, poisson=5.000e-01
*Uniaxial Test Data
 5.974336e-03, 4.000000e-03
 1.194867e-02, 8.000000e-03
 1.792301e-02, 1.200000e-02
 2.389734e-02, 1.600000e-02
 2.987168e-02, 2.000000e-02
 3.432796e-02, 2.333333e-02
 3.936494e-02, 2.666667e-02
 4.511530e-02, 3.000000e-02
 5.027093e-02, 3.333333e-02
 5.477408e-02, 3.666667e-02
 5.947890e-02, 4.000000e-02
 6.483136e-02, 4.333333e-02
 7.023437e-02, 4.666667e-02
 7.504627e-02, 5.000000e-02
 8.043548e-02, 5.333333e-02
 8.538139e-02, 5.666667e-02
 8.941235e-02, 6.000000e-02
 9.416060e-02, 6.333333e-02
 9.898704e-02, 6.666667e-02
 1.041274e-01, 7.000000e-02
** ... 9 like lines cut
*Viscoelastic, time=PRONY
 2.210480e-03, 0.000000e+00, 8.230843e-21
 2.697254e-07, 0.000000e+00, 1.992599e-22
 1.691142e-09, 0.000000e+00, 2.761502e-21
 1.067550e-01, 0.000000e+00, 1.393753e-16
 1.348437e-02, 0.000000e+00, 7.498665e-18
 3.229284e-12, 0.000000e+00, 2.634801e-16
 3.607694e-08, 0.000000e+00, 3.083915e-13
 1.241816e-01, 0.000000e+00, 1.786495e-14
 2.051766e-11, 0.000000e+00, 2.222881e-11
 3.325189e-02, 0.000000e+00, 1.760707e-13
 2.255527e-06, 0.000000e+00, 7.641054e-14
 4.769171e-02, 0.000000e+00, 4.504688e-13
 5.394025e-02, 0.000000e+00, 1.335774e-12
 9.117043e-02, 0.000000e+00, 8.983929e-12
 9.206389e-02, 0.000000e+00, 9.035427e-11
 9.060036e-02, 0.000000e+00, 9.580790e-10
 8.104198e-02, 0.000000e+00, 1.100762e-08
 6.350700e-02, 0.000000e+00, 1.548450e-07
 4.756889e-02, 0.000000e+00, 2.157643e-06
 4.466440e-02, 0.000000e+00, 1.990217e-05
** ... 11 like lines cut
*Trs, definition=USER
*Material, name=Mix_Agilus_VeroWhiteUltra_688900ppm
*Density
 1.152444e-09
*Depvar
  1,
*Expansion
 1.020000e-04, 4.000000e+01
 1.570000e-04, 8.000000e+01
*Hyperelastic, mooney-rivlin, test data input, moduli=LONG TERM, poisson=5.000e-01
*Uniaxial Test Data
 4.151163e-03, 4.000000e-03
 8.302326e-03, 8.000000e-03
 1.245349e-02, 1.200000e-02
 1.660465e-02, 1.600000e-02
 2.075582e-02, 2.000000e-02
 2.381255e-02, 2.333333e-02
 2.736372e-02, 2.666667e-02
 3.161950e-02, 3.000000e-02
 3.537060e-02, 3.333333e-02
 3.839583e-02, 3.666667e-02
 4.158185e-02, 4.000000e-02
 4.544935e-02, 4.333333e-02
 4.944943e-02, 4.666667e-02
 5.280846e-02, 5.000000e-02
 5.670805e-02, 5.333333e-02
 6.023827e-02, 5.666667e-02
 6.285366e-02, 6.000000e-02
 6.612929e-02, 6.333333e-02
 6.949528e-02, 6.666667e-02
 7.320800e-02, 7.000000e-02
** ... 9 like lines cut
*Viscoelastic, time=PRONY
 7.082294e-03, 0.000000e+00, 1.889557e-20
 7.946679e-04, 0.000000e+00, 5.593650e-23
 1.850666e-10, 0.000000e+00, 1.651408e-16
 3.718585e-02, 0.000000e+00, 6.562908e-17
 2.219419e-11, 0.000000e+00, 9.118329e-20
 5.644061e-12, 0.000000e+00, 5.712888e-14
 9.698900e-02, 0.000000e+00, 9.732992e-16
 1.843544e-12, 0.000000e+00, 4.181255e-17
 1.826258e-02, 0.000000e+00, 2.290692e-13
 1.382073e-06, 0.000000e+00, 3.983479e-15
 1.070154e-01, 0.000000e+00, 3.976128e-14
 8.303161e-02, 0.000000e+00, 8.255621e-13
 7.458568e-02, 0.000000e+00, 4.813233e-12
 1.030836e-01, 0.000000e+00, 3.976129e-11
 9.967478e-02, 0.000000e+00, 4.844433e-10
 7.971163e-02, 0.000000e+00, 4.706899e-09
 6.976414e-02, 0.000000e+00, 3.976650e-08
 5.210152e-02, 0.000000e+00, 3.976500e-07
 3.992228e-02, 0.000000e+00, 3.977400e-06
 4.043195e-02, 0.000000e+00, 3.976128e-05
** ... 11 like lines cut
*Trs, definition=USER
*Material, name=Mix_Agilus_VeroWhiteUltra_730600ppm
*Density
 1.150776e-09
*Depvar
  1,
*Expansion
 1.020000e-04, 4.000000e+01
 1.570000e-04, 8.000000e+01
*Hyperelastic, mooney-rivlin, test data input, moduli=LONG TERM, poisson=5.000e-01
*Uniaxial Test Data
 2.836454e-03, 4.000000e-03
 5.672908e-03, 8.000000e-03
 8.509363e-03, 1.200000e-02
 1.134582e-02, 1.600000e-02
 1.418227e-02, 2.000000e-02
 1.622977e-02, 2.333333e-02
 1.870951e-02, 2.666667e-02
 2.188753e-02, 3.000000e-02
 2.462582e-02, 3.333333e-02
 2.658530e-02, 3.666667e-02
 2.867609e-02, 4.000000e-02
 3.147277e-02, 4.333333e-02
 3.446119e-02, 4.666667e-02
 3.677254e-02, 5.000000e-02
 3.959795e-02, 5.333333e-02
 4.210730e-02, 5.666667e-02
 4.370191e-02, 6.000000e-02
 4.591562e-02, 6.333333e-02
 4.822846e-02, 6.666667e-02
 5.091168e-02, 7.000000e-02
** ... 9 like lines cut
*Viscoelastic, time=PRONY
 4.236202e-08, 0.000000e+00, 2.465775e-23
 2.153359e-03, 0.000000e+00, 1.176857e-17
 5.332620e-10, 0.000000e+00, 6.835884e-16
 6.879776e-11, 0.000000e+00, 2.451914e-20
 5.082408e-09, 0.000000e+00, 2.518369e-19
 1.242820e-01, 0.000000e+00, 1.646877e-15
 2.476304e-08, 0.000000e+00, 9.859429e-16
 1.862628e-08, 0.000000e+00, 2.451269e-16
 1.230881e-01, 0.000000e+00, 8.966603e-14
 1.953649e-09, 0.000000e+00, 2.455802e-14
 1.135422e-10, 0.000000e+00, 2.451266e-13
 1.258457e-01, 0.000000e+00, 2.451251e-12
 9.802309e-02, 0.000000e+00, 2.451275e-11
 1.070981e-01, 0.000000e+00, 2.451263e-10
 9.610307e-02, 0.000000e+00, 2.451314e-09
 8.312399e-02, 0.000000e+00, 2.451267e-08
 6.785528e-02, 0.000000e+00, 2.451275e-07
 4.672736e-02, 0.000000e+00, 2.451252e-06
 3.631376e-02, 0.000000e+00, 2.451248e-05
 2.177246e-02, 0.000000e+00, 2.451247e-04
** ... 11 like lines cut
*Trs, definition=USER
*Material, name=Mix_Agilus_VeroWhiteUltra_772400ppm
*Density
 1.149104e-09
*Depvar
  1,
*Expansion
 1.020000e-04, 4.000000e+01
 1.570000e-04, 8.000000e+01
*Hyperelastic, mooney-rivlin, test data input, moduli=LONG TERM, poisson=5.000e-01
*Uniaxial Test Data
 2.131121e-03, 4.000000e-03
 4.262242e-03, 8.000000e-03
 6.393363e-03, 1.200000e-02
 8.524484e-03, 1.600000e-02
 1.065561e-02, 2.000000e-02
 1.216166e-02, 2.333333e-02
 1.406658e-02, 2.666667e-02
 1.666639e-02, 3.000000e-02
 1.886131e-02, 3.333333e-02
 2.024902e-02, 3.666667e-02
 2.175223e-02, 4.000000e-02
 2.397443e-02, 4.333333e-02
 2.642010e-02, 4.666667e-02
 2.816937e-02, 5.000000e-02
 3.041849e-02, 5.333333e-02
 3.238015e-02, 5.666667e-02
 3.342712e-02, 6.000000e-02
 3.507111e-02, 6.333333e-02
 3.681894e-02, 6.666667e-02
 3.894985e-02, 7.000000e-02
** ... 9 like lines cut
*Viscoelastic, time=PRONY
 4.563297e-09, 0.000000e+00, 5.426919e-19
 1.408490e-10, 0.000000e+00, 1.016685e-20
 9.066357e-11, 0.000000e+00, 4.336331e-20
 1.230931e-11, 0.000000e+00, 4.730532e-15
 8.219075e-03, 0.000000e+00, 8.017099e-16
 1.347745e-01, 0.000000e+00, 1.461527e-14
 1.202572e-01, 0.000000e+00, 5.327257e-13
 3.342184e-02, 0.000000e+00, 7.231731e-11
 9.845349e-02, 0.000000e+00, 1.301967e-10
 1.184591e-01, 0.000000e+00, 8.982706e-12
 1.078264e-01, 0.000000e+00, 1.452610e-09
 5.645473e-02, 0.000000e+00, 2.113290e-08
 8.213605e-02, 0.000000e+00, 5.378213e-08
 2.547862e-02, 0.000000e+00, 2.670841e-09
 3.967448e-02, 0.000000e+00, 6.685177e-07
 5.295525e-02, 0.000000e+00, 1.532037e-06
 1.829860e-09, 0.000000e+00, 2.680466e-06
 4.846351e-02, 0.000000e+00, 2.671480e-05
 3.317673e-02, 0.000000e+00, 6.342498e-04
 1.568715e-05, 0.000000e+00, 4.190963e-02
** ... 11 like lines cut
*Trs, definition=USER
*Material, name=Mix_Agilus_VeroWhiteUltra_814100ppm
*Density
 1.147436e-09
*Depvar
  1,
*Expansion
 1.020000e-04, 4.000000e+01
 1.570000e-04, 8.000000e+01
*Hyperelastic, mooney-rivlin, test data input, moduli=LONG TERM, poisson=5.000e-01
*Uniaxial Test Data
 1.552395e-03, 4.000000e-03
 3.104791e-03, 8.000000e-03
 4.657186e-03, 1.200000e-02
 6.209582e-03, 1.600000e-02
 7.761977e-03, 2.000000e-02
 8.823774e-03, 2.333333e-02
 1.025706e-02, 2.666667e-02
 1.238245e-02, 3.000000e-02
 1.413154e-02, 3.333333e-02
 1.505011e-02, 3.666667e-02
 1.607120e-02, 4.000000e-02
 1.782204e-02, 4.333333e-02
 1.982238e-02, 4.666667e-02
 2.111048e-02, 5.000000e-02
 2.288674e-02, 5.333333e-02
 2.439902e-02, 5.666667e-02
 2.499665e-02, 6.000000e-02
 2.617319e-02, 6.333333e-02
 2.745744e-02, 6.666667e-02
 2.913517e-02, 7.000000e-02
** ... 9 like lines cut
*Viscoelastic, time=PRONY
 2.024032e-08, 0.000000e+00, 8.044118e-15
 1.113357e-08, 0.000000e+00, 1.276295e-19
 7.144682e-11, 0.000000e+00, 3.111584e-18
 9.925109e-09, 0.000000e+00, 1.724242e-16
 3.524407e-10, 0.000000e+00, 1.197970e-16
 9.822011e-03, 0.000000e+00, 1.544231e-15
 7.942174e-06, 0.000000e+00, 1.075028e-14
 1.995711e-01, 0.000000e+00, 1.921101e-10
 2.260680e-01, 0.000000e+00, 1.075032e-12
 4.602621e-02, 0.000000e+00, 1.074970e-11
 2.051879e-07, 0.000000e+00, 1.074974e-10
 1.823594e-02, 0.000000e+00, 1.074962e-09
 1.770786e-01, 0.000000e+00, 1.075013e-08
 1.017989e-01, 0.000000e+00, 1.074962e-07
 8.547837e-02, 0.000000e+00, 1.483251e-06
 5.309338e-02, 0.000000e+00, 1.074995e-05
 2.650272e-02, 0.000000e+00, 1.074973e-04
 4.014491e-02, 0.000000e+00, 1.076405e-03
 1.658602e-05, 0.000000e+00, 7.828743e-02
 1.980921e-05, 0.000000e+00, 1.075034e-01
** ... 11 like lines cut
*Trs, definition=USER
*Material, name=Mix_Agilus_VeroWhiteUltra_835000ppm
*Density
 1.146600e-09
*Depvar
  1,
*Expansion
 1.020000e-04, 4.000000e+01
 1.570000e-04, 8.000000e+01
*Hyperelastic, mooney-rivlin, test data input, moduli=LONG TERM, poisson=5.000e-01
*Uniaxial Test Data
 1.258273e-03, 4.000000e-03
 2.516546e-03, 8.000000e-03
 3.774820e-03, 1.200000e-02
 5.033093e-03, 1.600000e-02
 6.291366e-03, 2.000000e-02
 7.127381e-03, 2.333333e-02
 8.320970e-03, 2.666667e-02
 1.020524e-02, 3.000000e-02
 1.172775e-02, 3.333333e-02
 1.240790e-02, 3.666667e-02
 1.318397e-02, 4.000000e-02
 1.469525e-02, 4.333333e-02
 1.646926e-02, 4.666667e-02
 1.752297e-02, 5.000000e-02
 1.905893e-02, 5.333333e-02
 2.034282e-02, 5.666667e-02
 2.071209e-02, 6.000000e-02
 2.165106e-02, 6.333333e-02
 2.269970e-02, 6.666667e-02
 2.414711e-02, 7.000000e-02
** ... 9 like lines cut
*Viscoelastic, time=PRONY
 2.455527e-10, 0.000000e+00, 1.339880e-14
 2.199257e-10, 0.000000e+00, 6.668084e-12
 4.360565e-12, 0.000000e+00, 6.901964e-17
 1.196396e-10, 0.000000e+00, 4.616716e-11
 1.136695e-12, 0.000000e+00, 9.686835e-15
 1.223404e-01, 0.000000e+00, 4.642239e-10
 6.795461e-11, 0.000000e+00, 6.717723e-13
 1.657060e-01, 0.000000e+00, 6.668096e-12
 1.084978e-01, 0.000000e+00, 6.668100e-11
 5.982129e-08, 0.000000e+00, 1.452771e-08
 1.887701e-01, 0.000000e+00, 6.668128e-09
 2.011890e-01, 0.000000e+00, 2.083216e-07
 4.181520e-05, 0.000000e+00, 6.668252e-07
 1.092772e-01, 0.000000e+00, 6.668103e-06
 7.259700e-02, 0.000000e+00, 7.775245e-05
 2.881969e-02, 0.000000e+00, 1.510876e-02
 3.624156e-07, 0.000000e+00, 9.689128e+00
 1.632482e-03, 0.000000e+00, 9.740511e-02
 3.593007e-04, 0.000000e+00, 9.404804e+00
 4.403873e-05, 0.000000e+00, 3.735587e+03
** ... 11 like lines cut
*Trs, definition=USER
**
***************************************************************************
