*HEADING
Voxel FE Sim
**
***************************************************************************
**
** Joël Chapuis & Marc Wirth, 08-Jul-2025 
** Include File: Orthosis.inc
** Description: Voxelized Matter FE Sim for Stratasys Materials
**
***************************************************************************
**
*Include, Input=Orthosis.inc
**
***************************************************************************
**                                                                       **
**   Element Sections                                                    **
**                                                                       **
***************************************************************************
**
** Section: SO_Mix_Agilus_VeroWhiteUltra_3100ppm
*SHELL SECTION, ELSET=e_Mix_Agilus_VeroWhiteUltra_3100ppm, controls=EC-1, MATERIAL = Mix_Agilus_VeroWhiteUltra_3100ppm
3.0,
,
** Section: SO_Mix_Agilus_VeroWhiteUltra_31800ppm
*SHELL SECTION, ELSET=e_Mix_Agilus_VeroWhiteUltra_31800ppm, controls=EC-1, MATERIAL = Mix_Agilus_VeroWhiteUltra_31800ppm
3.0,
,
** Section: SO_Mix_Agilus_VeroWhiteUltra_60400ppm
*SHELL SECTION, ELSET=e_Mix_Agilus_VeroWhiteUltra_60400ppm, controls=EC-1, MATERIAL = Mix_Agilus_VeroWhiteUltra_60400ppm
3.0,
,
** Section: SO_Mix_Agilus_VeroWhiteUltra_89100ppm
*SHELL SECTION, ELSET=e_Mix_Agilus_VeroWhiteUltra_89100ppm, controls=EC-1, MATERIAL = Mix_Agilus_VeroWhiteUltra_89100ppm
3.0,
,
** Section: SO_Mix_Agilus_VeroWhiteUltra_117800ppm
*SHELL SECTION, ELSET=e_Mix_Agilus_VeroWhiteUltra_117800ppm, controls=EC-1, MATERIAL = Mix_Agilus_VeroWhiteUltra_117800ppm
3.0,
,
** Section: SO_Mix_Agilus_VeroWhiteUltra_146400ppm
*SHELL SECTION, ELSET=e_Mix_Agilus_VeroWhiteUltra_146400ppm, controls=EC-1, MATERIAL = Mix_Agilus_VeroWhiteUltra_146400ppm
3.0,
,
** Section: SO_Mix_Agilus_VeroWhiteUltra_175100ppm
*SHELL SECTION, ELSET=e_Mix_Agilus_VeroWhiteUltra_175100ppm, controls=EC-1, MATERIAL = Mix_Agilus_VeroWhiteUltra_175100ppm
3.0,
,
** Section: SO_Mix_Agilus_VeroWhiteUltra_203800ppm
*SHELL SECTION, ELSET=e_Mix_Agilus_VeroWhiteUltra_203800ppm, controls=EC-1, MATERIAL = Mix_Agilus_VeroWhiteUltra_203800ppm
3.0,
,
** Section: SO_Mix_Agilus_VeroWhiteUltra_232400ppm
*SHELL SECTION, ELSET=e_Mix_Agilus_VeroWhiteUltra_232400ppm, controls=EC-1, MATERIAL = Mix_Agilus_VeroWhiteUltra_232400ppm
3.0,
,
** Section: SO_Mix_Agilus_VeroWhiteUltra_261100ppm
*SHELL SECTION, ELSET=e_Mix_Agilus_VeroWhiteUltra_261100ppm, controls=EC-1, MATERIAL = Mix_Agilus_VeroWhiteUltra_261100ppm
3.0,
,
** Section: SO_Mix_Agilus_VeroWhiteUltra_326000ppm
*SHELL SECTION, ELSET=e_Mix_Agilus_VeroWhiteUltra_326000ppm, controls=EC-1, MATERIAL = Mix_Agilus_VeroWhiteUltra_326000ppm
3.0,
,
** Section: SO_Mix_Agilus_VeroWhiteUltra_390900ppm
*SHELL SECTION, ELSET=e_Mix_Agilus_VeroWhiteUltra_390900ppm, controls=EC-1, MATERIAL = Mix_Agilus_VeroWhiteUltra_390900ppm
3.0,
,
** Section: SO_Mix_Agilus_VeroWhiteUltra_455900ppm
*SHELL SECTION, ELSET=e_Mix_Agilus_VeroWhiteUltra_455900ppm, controls=EC-1, MATERIAL = Mix_Agilus_VeroWhiteUltra_455900ppm
3.0,
,
** Section: SO_Mix_Agilus_VeroWhiteUltra_520800ppm
*SHELL SECTION, ELSET=e_Mix_Agilus_VeroWhiteUltra_520800ppm, controls=EC-1, MATERIAL = Mix_Agilus_VeroWhiteUltra_520800ppm
3.0,
,
** Section: SO_Mix_Agilus_VeroWhiteUltra_585700ppm
*SHELL SECTION, ELSET=e_Mix_Agilus_VeroWhiteUltra_585700ppm, controls=EC-1, MATERIAL = Mix_Agilus_VeroWhiteUltra_585700ppm
3.0,
,
** Section: SO_Mix_Agilus_VeroWhiteUltra_650600ppm
*SHELL SECTION, ELSET=e_Mix_Agilus_VeroWhiteUltra_650600ppm, controls=EC-1, MATERIAL = Mix_Agilus_VeroWhiteUltra_650600ppm
3.0,
,
** Section: SO_Mix_Agilus_VeroWhiteUltra_715600ppm
*SHELL SECTION, ELSET=e_Mix_Agilus_VeroWhiteUltra_715600ppm, controls=EC-1, MATERIAL = Mix_Agilus_VeroWhiteUltra_715600ppm
3.0,
,
** Section: SO_Mix_Agilus_VeroWhiteUltra_780500ppm
*SHELL SECTION, ELSET=e_Mix_Agilus_VeroWhiteUltra_780500ppm, controls=EC-1, MATERIAL = Mix_Agilus_VeroWhiteUltra_780500ppm
3.0,
,
** Section: SO_Mix_Agilus_VeroWhiteUltra_845400ppm
*SHELL SECTION, ELSET=e_Mix_Agilus_VeroWhiteUltra_845400ppm, controls=EC-1, MATERIAL = Mix_Agilus_VeroWhiteUltra_845400ppm
3.0,
,
**
***************************************************************************
**                                                                       **
**   Element Controls                                                    **
**                                                                       **
***************************************************************************
**
*Section Controls, name=EC-1, hourglass=ENHANCED
1., 1., 1.
**
***************************************************************************
**                                                                       **
**   Materials                                                           **
**                                                                       **
***************************************************************************
**
*Material, name=VeroWhiteUltra
*Density
 1.180000e-09
*Depvar
  1,
*Expansion
 1.020000e-04, 4.000000e+01
 1.570000e-04, 8.000000e+01
*Hyperelastic, mooney-rivlin, test data input, moduli=LONG TERM, poisson=5.000e-01
*Uniaxial Test Data
 3.387520e-02, 4.000000e-03
 6.775040e-02, 8.000000e-03
 1.016256e-01, 1.200000e-02
 1.355008e-01, 1.600000e-02
 1.693760e-01, 2.000000e-02
 1.952503e-01, 2.333333e-02
 2.230253e-01, 2.666667e-02
 2.516479e-01, 3.000000e-02
 2.782976e-01, 3.333333e-02
 3.054181e-01, 3.666667e-02
 3.333660e-01, 4.000000e-02
 3.614434e-01, 4.333333e-02
 3.883160e-01, 4.666667e-02
 4.153619e-01, 5.000000e-02
 4.435475e-01, 5.333333e-02
 4.701584e-01, 5.666667e-02
 4.958524e-01, 6.000000e-02
 5.231369e-01, 6.333333e-02
 5.503133e-01, 6.666667e-02
 5.773017e-01, 7.000000e-02
** ... 9 like lines cut
*Viscoelastic, time=PRONY
 1.306583e-02, 0.000000e+00, 6.530000e-20
 9.596792e-03, 0.000000e+00, 7.380000e-19
 1.173392e-02, 0.000000e+00, 6.230000e-18
 1.694979e-02, 0.000000e+00, 3.810000e-17
 1.797405e-02, 0.000000e+00, 1.750000e-16
 1.322089e-02, 0.000000e+00, 9.040000e-16
 1.276014e-02, 0.000000e+00, 5.420000e-15
 1.610320e-02, 0.000000e+00, 3.330000e-14
 2.290619e-02, 0.000000e+00, 1.850000e-13
 2.797923e-02, 0.000000e+00, 1.050000e-12
 3.117554e-02, 0.000000e+00, 6.270000e-12
 3.718748e-02, 0.000000e+00, 4.000000e-11
 4.277409e-02, 0.000000e+00, 2.570000e-10
 4.711653e-02, 0.000000e+00, 1.570000e-09
 5.780350e-02, 0.000000e+00, 8.430000e-09
 7.327210e-02, 0.000000e+00, 3.830000e-08
 9.613596e-02, 0.000000e+00, 1.500000e-07
 9.928671e-02, 0.000000e+00, 5.660000e-07
 7.821860e-02, 0.000000e+00, 1.970000e-06
 6.460420e-02, 0.000000e+00, 7.300000e-06
** ... 11 like lines cut
*Trs, definition=USER
*Material, name=Agilus
*Density
 1.140000e-09
*Depvar
  1,
*Expansion
 1.020000e-04, 4.000000e+01
 1.570000e-04, 8.000000e+01
*Hyperelastic, mooney-rivlin, test data input, moduli=LONG TERM, poisson=5.000e-01
*Uniaxial Test Data
 1.200000e-03, 4.000000e-03
 2.400000e-03, 8.000000e-03
 3.600000e-03, 1.200000e-02
 4.800000e-03, 1.600000e-02
 6.000000e-03, 2.000000e-02
 6.791282e-03, 2.333333e-02
 7.937381e-03, 2.666667e-02
 9.773884e-03, 3.000000e-02
 1.125150e-02, 3.333333e-02
 1.188441e-02, 3.666667e-02
 1.261193e-02, 4.000000e-02
 1.407575e-02, 4.333333e-02
 1.580492e-02, 4.666667e-02
 1.681220e-02, 5.000000e-02
 1.830054e-02, 5.333333e-02
 1.953919e-02, 5.666667e-02
 1.986321e-02, 6.000000e-02
 2.075511e-02, 6.333333e-02
 2.175707e-02, 6.666667e-02
 2.315885e-02, 7.000000e-02
** ... 9 like lines cut
*Viscoelastic, time=PRONY
 6.699011e-02, 0.000000e+00, 1.980000e-12
 2.043012e-02, 0.000000e+00, 4.500000e-12
 4.223279e-02, 0.000000e+00, 8.740000e-12
 4.201268e-02, 0.000000e+00, 2.390000e-11
 5.064544e-02, 0.000000e+00, 6.570000e-11
 5.402699e-02, 0.000000e+00, 1.510000e-10
 5.331245e-02, 0.000000e+00, 3.370000e-10
 5.341537e-02, 0.000000e+00, 7.250000e-10
 5.403276e-02, 0.000000e+00, 1.610000e-09
 5.226224e-02, 0.000000e+00, 3.690000e-09
 4.711878e-02, 0.000000e+00, 9.110000e-09
 4.288666e-02, 0.000000e+00, 2.420000e-08
 4.371754e-02, 0.000000e+00, 6.380000e-08
 4.583567e-02, 0.000000e+00, 1.640000e-07
 4.578316e-02, 0.000000e+00, 4.110000e-07
 4.108623e-02, 0.000000e+00, 9.730000e-07
 3.872610e-02, 0.000000e+00, 2.170000e-06
 3.513419e-02, 0.000000e+00, 5.000000e-06
 2.844161e-02, 0.000000e+00, 1.100000e-05
 2.716971e-02, 0.000000e+00, 2.210000e-05
** ... 11 like lines cut
*Trs, definition=USER
*Material, name=EXP_Agilus_VeroWhiteUltra_666660ppm
*Density
 1.152200e-09
*Depvar
  1,
*Expansion
 1.020000e-04, 4.000000e+01
 1.570000e-04, 8.000000e+01
*Hyperelastic, mooney-rivlin, test data input, moduli=LONG TERM, poisson=5.000e-01
*Uniaxial Test Data
 1.250000e-03, 1.000000e-05
 1.180000e-03, 8.000000e-05
 8.500000e-04, 1.800000e-04
 3.370000e-03, 3.000000e-04
 1.330000e-03, 4.100000e-04
 2.660000e-03, 5.300000e-04
 2.890000e-03, 6.700000e-04
 3.750000e-03, 8.100000e-04
 4.750000e-03, 9.600000e-04
 4.990000e-03, 1.110000e-03
 5.350000e-03, 1.260000e-03
 6.770000e-03, 1.410000e-03
 5.330000e-03, 1.560000e-03
 6.290000e-03, 1.710000e-03
 7.470000e-03, 1.870000e-03
 6.250000e-03, 2.020000e-03
 9.320000e-03, 2.180000e-03
 1.021000e-02, 2.330000e-03
 8.230000e-03, 2.490000e-03
 1.101000e-02, 2.650000e-03
** ... 972 like lines cut
*Viscoelastic, time=PRONY
 5.208712e-02, 0.000000e+00, 1.060000e-16
 4.019943e-02, 0.000000e+00, 6.170000e-16
 4.350352e-02, 0.000000e+00, 3.850000e-15
 5.182202e-02, 0.000000e+00, 2.000000e-14
 5.802583e-02, 0.000000e+00, 1.030000e-13
 6.471299e-02, 0.000000e+00, 5.150000e-13
 6.745419e-02, 0.000000e+00, 2.470000e-12
 6.863131e-02, 0.000000e+00, 1.170000e-11
 6.642708e-02, 0.000000e+00, 5.380000e-11
 6.375869e-02, 0.000000e+00, 2.470000e-10
 6.295894e-02, 0.000000e+00, 1.060000e-09
 5.881001e-02, 0.000000e+00, 4.410000e-09
 5.490486e-02, 0.000000e+00, 1.760000e-08
 4.683525e-02, 0.000000e+00, 6.790000e-08
 3.663348e-02, 0.000000e+00, 2.570000e-07
 2.543298e-02, 0.000000e+00, 9.500000e-07
 1.716899e-02, 0.000000e+00, 3.230000e-06
 1.235042e-02, 0.000000e+00, 7.750000e-06
 1.290914e-02, 0.000000e+00, 1.770000e-05
 1.216037e-02, 0.000000e+00, 4.230000e-05
** ... 11 like lines cut
*Trs, definition=USER
*Material, name=EXP_Agilus_VeroWhiteUltra_333330ppm
*Density
 1.165500e-09
*Depvar
  1,
*Expansion
 1.020000e-04, 4.000000e+01
 1.570000e-04, 8.000000e+01
*Hyperelastic, mooney-rivlin, test data input, moduli=LONG TERM, poisson=5.000e-01
*Uniaxial Test Data
 3.690000e-03, 6.000000e-05
 5.080000e-03, 1.700000e-04
 4.370000e-03, 3.100000e-04
 4.500000e-03, 4.500000e-04
 9.160000e-03, 5.900000e-04
 6.230000e-03, 7.300000e-04
 8.600000e-03, 8.800000e-04
 9.480000e-03, 1.030000e-03
 9.710000e-03, 1.180000e-03
 1.193000e-02, 1.340000e-03
 1.168000e-02, 1.490000e-03
 1.286000e-02, 1.650000e-03
 1.455000e-02, 1.820000e-03
 1.319000e-02, 1.970000e-03
 1.676000e-02, 2.120000e-03
 1.612000e-02, 2.290000e-03
 1.768000e-02, 2.450000e-03
 1.819000e-02, 2.600000e-03
 1.761000e-02, 2.760000e-03
 2.060000e-02, 2.910000e-03
** ... 971 like lines cut
*Viscoelastic, time=PRONY
 2.030807e-02, 0.000000e+00, 2.710000e-20
 1.767046e-02, 0.000000e+00, 1.560000e-19
 1.697761e-02, 0.000000e+00, 8.780000e-19
 2.192602e-02, 0.000000e+00, 4.850000e-18
 2.506008e-02, 0.000000e+00, 2.490000e-17
 2.927288e-02, 0.000000e+00, 1.280000e-16
 3.299917e-02, 0.000000e+00, 6.360000e-16
 3.504137e-02, 0.000000e+00, 3.250000e-15
 3.548113e-02, 0.000000e+00, 1.700000e-14
 3.908807e-02, 0.000000e+00, 9.300000e-14
 4.144119e-02, 0.000000e+00, 5.030000e-13
 4.556507e-02, 0.000000e+00, 2.710000e-12
 4.737493e-02, 0.000000e+00, 1.470000e-11
 4.801150e-02, 0.000000e+00, 7.730000e-11
 4.961058e-02, 0.000000e+00, 4.040000e-10
 5.176995e-02, 0.000000e+00, 2.040000e-09
 5.645764e-02, 0.000000e+00, 9.620000e-09
 6.074982e-02, 0.000000e+00, 4.280000e-08
 6.279859e-02, 0.000000e+00, 1.800000e-07
 5.860156e-02, 0.000000e+00, 7.390000e-07
** ... 11 like lines cut
*Trs, definition=USER
*Material, name=EXP_Agilus_VeroWhiteUltra_500000ppm
*Density
 1.160000e-09
*Depvar
  1,
*Expansion
 1.020000e-04, 4.000000e+01
 1.570000e-04, 8.000000e+01
*Hyperelastic, mooney-rivlin, test data input, moduli=LONG TERM, poisson=5.000e-01
*Uniaxial Test Data
 3.690000e-03, 6.000000e-05
 5.080000e-03, 1.700000e-04
 4.370000e-03, 3.100000e-04
 4.500000e-03, 4.500000e-04
 9.160000e-03, 5.900000e-04
 6.230000e-03, 7.300000e-04
 8.600000e-03, 8.800000e-04
 9.480000e-03, 1.030000e-03
 9.710000e-03, 1.180000e-03
 1.193000e-02, 1.340000e-03
 1.168000e-02, 1.490000e-03
 1.286000e-02, 1.650000e-03
 1.455000e-02, 1.820000e-03
 1.319000e-02, 1.970000e-03
 1.676000e-02, 2.120000e-03
 1.612000e-02, 2.290000e-03
 1.768000e-02, 2.450000e-03
 1.819000e-02, 2.600000e-03
 1.761000e-02, 2.760000e-03
 2.060000e-02, 2.910000e-03
** ... 971 like lines cut
*Viscoelastic, time=PRONY
 3.100747e-02, 0.000000e+00, 1.600000e-21
 2.262450e-02, 0.000000e+00, 1.450000e-20
 2.178648e-02, 0.000000e+00, 1.520000e-19
 2.705580e-02, 0.000000e+00, 1.480000e-18
 3.282817e-02, 0.000000e+00, 1.150000e-17
 3.523161e-02, 0.000000e+00, 9.110000e-17
 3.972568e-02, 0.000000e+00, 6.810000e-16
 4.537660e-02, 0.000000e+00, 4.700000e-15
 4.589743e-02, 0.000000e+00, 3.150000e-14
 4.885603e-02, 0.000000e+00, 2.080000e-13
 5.412058e-02, 0.000000e+00, 1.320000e-12
 5.317621e-02, 0.000000e+00, 7.970000e-12
 5.259147e-02, 0.000000e+00, 4.980000e-11
 5.565394e-02, 0.000000e+00, 3.090000e-10
 5.435549e-02, 0.000000e+00, 1.800000e-09
 5.101302e-02, 0.000000e+00, 1.100000e-08
 5.085602e-02, 0.000000e+00, 6.820000e-08
 4.769093e-02, 0.000000e+00, 4.100000e-07
 4.321935e-02, 0.000000e+00, 2.610000e-06
 4.229960e-02, 0.000000e+00, 1.680000e-05
** ... 11 like lines cut
*Trs, definition=USER
*Material, name=EXP_Agilus_VeroWhiteUltra_835000ppm
*Density
 1.146600e-09
*Depvar
  1,
*Expansion
 1.020000e-04, 4.000000e+01
 1.570000e-04, 8.000000e+01
*Hyperelastic, mooney-rivlin, test data input, moduli=LONG TERM, poisson=5.000e-01
*Uniaxial Test Data
 1.995833e-03, 1.860610e-04
 -6.979170e-05, 2.042420e-04
 2.411460e-04, 2.787880e-04
 3.565625e-03, 3.942420e-04
 9.635420e-05, 5.084850e-04
 1.802080e-04, 6.512120e-04
 1.782813e-03, 8.642420e-04
 1.331250e-03, 1.124242e-03
 8.343750e-04, 1.318182e-03
 2.151563e-03, 1.489091e-03
 1.197396e-03, 1.634848e-03
 6.979170e-04, 1.794545e-03
 3.733854e-03, 1.936667e-03
 1.860417e-03, 2.104242e-03
 2.428125e-03, 2.251818e-03
 3.768229e-03, 2.425758e-03
 3.882292e-03, 2.582121e-03
 2.134896e-03, 2.726364e-03
 5.887500e-03, 2.873636e-03
 3.591146e-03, 3.014242e-03
** ... 640 like lines cut
*Viscoelastic, time=PRONY
 7.089741e-02, 0.000000e+00, 2.540000e-13
 5.330000e-05, 0.000000e+00, 4.070000e-13
 6.486820e-02, 0.000000e+00, 1.080000e-12
 5.224849e-02, 0.000000e+00, 3.960000e-12
 5.120822e-02, 0.000000e+00, 1.180000e-11
 5.120729e-02, 0.000000e+00, 3.510000e-11
 5.608220e-02, 0.000000e+00, 1.060000e-10
 5.762608e-02, 0.000000e+00, 3.380000e-10
 5.549610e-02, 0.000000e+00, 1.010000e-09
 5.024874e-02, 0.000000e+00, 2.770000e-09
 4.992168e-02, 0.000000e+00, 6.560000e-09
 6.246558e-02, 0.000000e+00, 1.910000e-08
 4.886623e-02, 0.000000e+00, 5.850000e-08
 4.440292e-02, 0.000000e+00, 1.520000e-07
 4.741447e-02, 0.000000e+00, 4.640000e-07
 3.915639e-02, 0.000000e+00, 1.470000e-06
 3.429231e-02, 0.000000e+00, 4.330000e-06
 2.904040e-02, 0.000000e+00, 1.230000e-05
 2.726461e-02, 0.000000e+00, 3.430000e-05
 2.157571e-02, 0.000000e+00, 9.660000e-05
** ... 11 like lines cut
*Trs, definition=USER
*Material, name=EXP_Agilus_VeroWhiteUltra_165000ppm
*Density
 1.173400e-09
*Depvar
  1,
*Expansion
 1.020000e-04, 4.000000e+01
 1.570000e-04, 8.000000e+01
*Hyperelastic, mooney-rivlin, test data input, moduli=LONG TERM, poisson=5.000e-01
*Uniaxial Test Data
 2.564063e-03, 3.900000e-04
 1.880000e-03, 3.927270e-04
 2.019792e-03, 4.390910e-04
 4.073438e-03, 5.766670e-04
 5.276042e-03, 7.348480e-04
 4.810938e-03, 9.003030e-04
 9.159375e-03, 1.056667e-03
 8.407292e-03, 1.187576e-03
 9.066146e-03, 1.341515e-03
 1.086667e-02, 1.462121e-03
 1.044375e-02, 1.619697e-03
 1.210208e-02, 1.750909e-03
 1.339010e-02, 1.881212e-03
 1.326875e-02, 2.032424e-03
 1.627292e-02, 2.180000e-03
 1.495156e-02, 2.330606e-03
 1.742448e-02, 2.475152e-03
 1.860833e-02, 2.632727e-03
 1.808542e-02, 2.789697e-03
 2.258542e-02, 2.951818e-03
** ... 598 like lines cut
*Viscoelastic, time=PRONY
 1.807909e-02, 0.000000e+00, 1.820000e-19
 1.479548e-02, 0.000000e+00, 7.790000e-19
 1.370890e-02, 0.000000e+00, 2.950000e-18
 1.048799e-02, 0.000000e+00, 8.850000e-18
 1.572936e-02, 0.000000e+00, 2.670000e-17
 2.264279e-02, 0.000000e+00, 1.260000e-16
 2.700004e-02, 0.000000e+00, 7.280000e-16
 3.142120e-02, 0.000000e+00, 4.330000e-15
 3.964185e-02, 0.000000e+00, 2.930000e-14
 4.859069e-02, 0.000000e+00, 2.390000e-13
 5.406862e-02, 0.000000e+00, 2.090000e-12
 5.944186e-02, 0.000000e+00, 1.840000e-11
 6.395248e-02, 0.000000e+00, 1.600000e-10
 6.589912e-02, 0.000000e+00, 1.330000e-09
 6.661100e-02, 0.000000e+00, 9.740000e-09
 6.624512e-02, 0.000000e+00, 6.050000e-08
 6.536436e-02, 0.000000e+00, 3.160000e-07
 6.011876e-02, 0.000000e+00, 1.410000e-06
 5.358102e-02, 0.000000e+00, 5.480000e-06
 5.009011e-02, 0.000000e+00, 2.150000e-05
** ... 11 like lines cut
*Trs, definition=USER
*Material, name=Mix_Agilus_VeroWhiteUltra_3100ppm
*Density
 1.179876e-09
*Depvar
  1,
*Expansion
 1.020000e-04, 4.000000e+01
 1.570000e-04, 8.000000e+01
*Hyperelastic, mooney-rivlin, test data input, moduli=LONG TERM, poisson=5.000e-01
*Uniaxial Test Data
 3.335706e-02, 4.000000e-03
 6.671412e-02, 8.000000e-03
 1.000712e-01, 1.200000e-02
 1.334282e-01, 1.600000e-02
 1.667853e-01, 2.000000e-02
 1.922618e-01, 2.333333e-02
 2.196146e-01, 2.666667e-02
 2.478125e-01, 3.000000e-02
 2.740630e-01, 3.333333e-02
 3.007635e-01, 3.666667e-02
 3.282797e-01, 4.000000e-02
 3.559351e-01, 4.333333e-02
 3.824090e-01, 4.666667e-02
 4.090419e-01, 5.000000e-02
 4.368042e-01, 5.333333e-02
 4.630128e-01, 5.666667e-02
 4.883045e-01, 6.000000e-02
 5.151705e-01, 6.333333e-02
 5.419318e-01, 6.666667e-02
 5.685145e-01, 7.000000e-02
** ... 9 like lines cut
*Viscoelastic, time=PRONY
 6.819455e-02, 0.000000e+00, 7.034954e-27
 2.591492e-02, 0.000000e+00, 4.477659e-28
 1.675108e-01, 0.000000e+00, 4.472411e-27
 2.955496e-08, 0.000000e+00, 1.171584e-23
 3.101919e-08, 0.000000e+00, 4.471977e-25
 3.900924e-07, 0.000000e+00, 4.482198e-24
 2.159620e-08, 0.000000e+00, 4.471971e-23
 1.548516e-08, 0.000000e+00, 4.472010e-22
 1.856865e-02, 0.000000e+00, 1.670446e-19
 3.392965e-02, 0.000000e+00, 9.389289e-16
 4.522481e-02, 0.000000e+00, 3.597133e-14
 1.175216e-02, 0.000000e+00, 4.471983e-18
 6.253551e-09, 0.000000e+00, 4.472489e-17
 5.924362e-02, 0.000000e+00, 2.211323e-11
 8.543585e-02, 0.000000e+00, 5.378773e-10
 3.435468e-08, 0.000000e+00, 3.421227e-10
 6.662229e-12, 0.000000e+00, 4.476671e-13
 1.771467e-01, 0.000000e+00, 7.836288e-08
 1.815723e-10, 0.000000e+00, 4.472595e-11
 1.474916e-01, 0.000000e+00, 2.198862e-06
** ... 11 like lines cut
*Trs, definition=USER
*Material, name=Mix_Agilus_VeroWhiteUltra_31800ppm
*Density
 1.178728e-09
*Depvar
  1,
*Expansion
 1.020000e-04, 4.000000e+01
 1.570000e-04, 8.000000e+01
*Hyperelastic, mooney-rivlin, test data input, moduli=LONG TERM, poisson=5.000e-01
*Uniaxial Test Data
 3.231119e-02, 4.000000e-03
 6.462237e-02, 8.000000e-03
 9.693356e-02, 1.200000e-02
 1.292447e-01, 1.600000e-02
 1.615559e-01, 2.000000e-02
 1.862296e-01, 2.333333e-02
 2.127300e-01, 2.666667e-02
 2.400705e-01, 3.000000e-02
 2.655153e-01, 3.333333e-02
 2.913680e-01, 3.666667e-02
 3.180130e-01, 4.000000e-02
 3.448165e-01, 4.333333e-02
 3.704856e-01, 4.666667e-02
 3.962851e-01, 5.000000e-02
 4.231928e-01, 5.333333e-02
 4.485893e-01, 5.666667e-02
 4.730690e-01, 6.000000e-02
 4.990901e-01, 6.333333e-02
 5.250137e-01, 6.666667e-02
 5.507774e-01, 7.000000e-02
** ... 9 like lines cut
*Viscoelastic, time=PRONY
 6.894342e-07, 0.000000e+00, 5.559879e-29
 9.359302e-02, 0.000000e+00, 5.677634e-28
 2.472015e-06, 0.000000e+00, 5.567432e-27
 1.287516e-07, 0.000000e+00, 5.559149e-26
 2.013974e-07, 0.000000e+00, 5.559767e-25
 2.988471e-08, 0.000000e+00, 5.962374e-24
 1.695522e-07, 0.000000e+00, 5.559377e-23
 6.533679e-03, 0.000000e+00, 5.559117e-22
 3.375216e-02, 0.000000e+00, 1.768161e-18
 4.060092e-02, 0.000000e+00, 2.884882e-16
 1.443222e-02, 0.000000e+00, 5.575103e-15
 5.623711e-02, 0.000000e+00, 1.395841e-13
 4.206037e-03, 0.000000e+00, 5.559132e-17
 5.931105e-02, 0.000000e+00, 1.041398e-11
 5.851332e-02, 0.000000e+00, 1.788777e-10
 4.562938e-02, 0.000000e+00, 2.172151e-09
 1.381962e-01, 0.000000e+00, 2.548008e-08
 1.445405e-08, 0.000000e+00, 5.559699e-12
 6.223464e-02, 0.000000e+00, 6.537860e-07
 4.495652e-02, 0.000000e+00, 9.246985e-06
** ... 11 like lines cut
*Trs, definition=USER
*Material, name=Mix_Agilus_VeroWhiteUltra_60400ppm
*Density
 1.177584e-09
*Depvar
  1,
*Expansion
 1.020000e-04, 4.000000e+01
 1.570000e-04, 8.000000e+01
*Hyperelastic, mooney-rivlin, test data input, moduli=LONG TERM, poisson=5.000e-01
*Uniaxial Test Data
 3.134877e-02, 4.000000e-03
 6.269753e-02, 8.000000e-03
 9.404630e-02, 1.200000e-02
 1.253951e-01, 1.600000e-02
 1.567438e-01, 2.000000e-02
 1.806787e-01, 2.333333e-02
 2.063948e-01, 2.666667e-02
 2.329463e-01, 3.000000e-02
 2.576497e-01, 3.333333e-02
 2.827222e-01, 3.666667e-02
 3.085654e-01, 4.000000e-02
 3.345851e-01, 4.333333e-02
 3.595136e-01, 4.666667e-02
 3.845462e-01, 5.000000e-02
 4.106676e-01, 5.333333e-02
 4.353167e-01, 5.666667e-02
 4.590491e-01, 6.000000e-02
 4.842929e-01, 6.333333e-02
 5.094455e-01, 6.666667e-02
 5.344556e-01, 7.000000e-02
** ... 9 like lines cut
*Viscoelastic, time=PRONY
 2.596013e-06, 0.000000e+00, 5.359392e-25
 1.900713e-08, 0.000000e+00, 3.130798e-22
 4.680721e-07, 0.000000e+00, 5.969021e-24
 7.526964e-07, 0.000000e+00, 6.984014e-26
 3.945873e-09, 0.000000e+00, 6.987875e-25
 4.187491e-08, 0.000000e+00, 1.550710e-19
 5.941555e-03, 0.000000e+00, 6.984002e-23
 1.069969e-09, 0.000000e+00, 4.429699e-21
 1.736491e-08, 0.000000e+00, 6.984024e-21
 4.841773e-02, 0.000000e+00, 2.004739e-18
 6.278396e-02, 0.000000e+00, 4.861543e-16
 4.907225e-02, 0.000000e+00, 8.421140e-14
 8.616781e-02, 0.000000e+00, 3.125603e-12
 9.473821e-08, 0.000000e+00, 1.581177e-12
 8.711604e-02, 0.000000e+00, 3.796087e-10
 7.000918e-02, 0.000000e+00, 3.499933e-09
 1.153743e-01, 0.000000e+00, 5.153563e-08
 1.322769e-01, 0.000000e+00, 3.852300e-07
 1.179437e-01, 0.000000e+00, 2.740327e-06
 7.395186e-02, 0.000000e+00, 2.219364e-05
** ... 11 like lines cut
*Trs, definition=USER
*Material, name=Mix_Agilus_VeroWhiteUltra_89100ppm
*Density
 1.176436e-09
*Depvar
  1,
*Expansion
 1.020000e-04, 4.000000e+01
 1.570000e-04, 8.000000e+01
*Hyperelastic, mooney-rivlin, test data input, moduli=LONG TERM, poisson=5.000e-01
*Uniaxial Test Data
 3.044882e-02, 4.000000e-03
 6.089765e-02, 8.000000e-03
 9.134647e-02, 1.200000e-02
 1.217953e-01, 1.600000e-02
 1.522441e-01, 2.000000e-02
 1.754881e-01, 2.333333e-02
 2.004708e-01, 2.666667e-02
 2.262846e-01, 3.000000e-02
 2.502947e-01, 3.333333e-02
 2.746377e-01, 3.666667e-02
 2.997312e-01, 4.000000e-02
 3.250178e-01, 4.333333e-02
 3.492539e-01, 4.666667e-02
 3.735693e-01, 5.000000e-02
 3.989554e-01, 5.333333e-02
 4.229057e-01, 5.666667e-02
 4.459394e-01, 6.000000e-02
 4.704563e-01, 6.333333e-02
 4.948880e-01, 6.666667e-02
 5.191933e-01, 7.000000e-02
** ... 9 like lines cut
*Viscoelastic, time=PRONY
 6.492725e-02, 0.000000e+00, 3.402129e-28
 1.736367e-05, 0.000000e+00, 9.481538e-28
 5.170347e-07, 0.000000e+00, 4.934547e-22
 5.688152e-02, 0.000000e+00, 8.887256e-26
 1.789795e-08, 0.000000e+00, 8.890772e-25
 1.263150e-08, 0.000000e+00, 8.887430e-24
 2.650760e-07, 0.000000e+00, 8.902226e-23
 7.051049e-03, 0.000000e+00, 8.887219e-22
 3.545942e-02, 0.000000e+00, 2.219839e-18
 4.314667e-02, 0.000000e+00, 1.089376e-16
 3.772816e-02, 0.000000e+00, 5.251831e-15
 6.656026e-02, 0.000000e+00, 2.665099e-13
 1.459553e-09, 0.000000e+00, 1.149856e-13
 9.032528e-02, 0.000000e+00, 3.149521e-11
 8.047321e-09, 0.000000e+00, 8.887219e-15
 7.903559e-02, 0.000000e+00, 2.137368e-09
 9.554324e-02, 0.000000e+00, 2.651071e-08
 1.390806e-01, 0.000000e+00, 3.973996e-07
 1.215435e-01, 0.000000e+00, 4.169072e-06
 1.315450e-10, 0.000000e+00, 8.890038e-10
** ... 11 like lines cut
*Trs, definition=USER
*Material, name=Mix_Agilus_VeroWhiteUltra_117800ppm
*Density
 1.175288e-09
*Depvar
  1,
*Expansion
 1.020000e-04, 4.000000e+01
 1.570000e-04, 8.000000e+01
*Hyperelastic, mooney-rivlin, test data input, moduli=LONG TERM, poisson=5.000e-01
*Uniaxial Test Data
 2.959244e-02, 4.000000e-03
 5.918487e-02, 8.000000e-03
 8.877731e-02, 1.200000e-02
 1.183697e-01, 1.600000e-02
 1.479622e-01, 2.000000e-02
 1.705488e-01, 2.333333e-02
 1.948336e-01, 2.666667e-02
 2.199453e-01, 3.000000e-02
 2.432957e-01, 3.333333e-02
 2.669445e-01, 3.666667e-02
 2.913245e-01, 4.000000e-02
 3.159137e-01, 4.333333e-02
 3.394907e-01, 4.666667e-02
 3.631237e-01, 5.000000e-02
 3.878101e-01, 5.333333e-02
 4.110954e-01, 5.666667e-02
 4.334642e-01, 6.000000e-02
 4.572893e-01, 6.333333e-02
 4.810350e-01, 6.666667e-02
 5.046698e-01, 7.000000e-02
** ... 9 like lines cut
*Viscoelastic, time=PRONY
 1.244051e-06, 0.000000e+00, 1.176512e-28
 6.879314e-02, 0.000000e+00, 1.240952e-27
 6.642191e-07, 0.000000e+00, 4.917461e-23
 2.592539e-06, 0.000000e+00, 1.146359e-25
 7.942766e-03, 0.000000e+00, 8.471969e-21
 8.287286e-08, 0.000000e+00, 2.998455e-20
 5.680286e-06, 0.000000e+00, 3.470185e-20
 5.512074e-09, 0.000000e+00, 8.515248e-19
 2.286562e-02, 0.000000e+00, 2.019769e-19
 4.401587e-02, 0.000000e+00, 1.653203e-17
 6.159956e-02, 0.000000e+00, 1.292927e-15
 4.842477e-02, 0.000000e+00, 1.280065e-13
 4.384392e-02, 0.000000e+00, 1.179259e-12
 4.654484e-02, 0.000000e+00, 1.653464e-11
 5.367824e-02, 0.000000e+00, 1.434482e-10
 6.606656e-02, 0.000000e+00, 2.016370e-09
 1.060959e-01, 0.000000e+00, 2.677562e-08
 1.287116e-01, 0.000000e+00, 4.077079e-07
 8.640977e-02, 0.000000e+00, 2.758110e-06
 9.143142e-08, 0.000000e+00, 1.454569e-06
** ... 11 like lines cut
*Trs, definition=USER
*Material, name=Mix_Agilus_VeroWhiteUltra_146400ppm
*Density
 1.174144e-09
*Depvar
  1,
*Expansion
 1.020000e-04, 4.000000e+01
 1.570000e-04, 8.000000e+01
*Hyperelastic, mooney-rivlin, test data input, moduli=LONG TERM, poisson=5.000e-01
*Uniaxial Test Data
 2.875765e-02, 4.000000e-03
 5.751530e-02, 8.000000e-03
 8.627295e-02, 1.200000e-02
 1.150306e-01, 1.600000e-02
 1.437882e-01, 2.000000e-02
 1.657341e-01, 2.333333e-02
 1.893385e-01, 2.666667e-02
 2.137659e-01, 3.000000e-02
 2.364732e-01, 3.333333e-02
 2.594452e-01, 3.666667e-02
 2.831299e-01, 4.000000e-02
 3.070391e-01, 4.333333e-02
 3.299738e-01, 4.666667e-02
 3.529415e-01, 5.000000e-02
 3.769458e-01, 5.333333e-02
 3.995830e-01, 5.666667e-02
 4.213036e-01, 6.000000e-02
 4.444545e-01, 6.333333e-02
 4.675315e-01, 6.666667e-02
 4.905125e-01, 7.000000e-02
** ... 9 like lines cut
*Viscoelastic, time=PRONY
 6.551805e-06, 0.000000e+00, 1.615957e-28
 3.354902e-08, 0.000000e+00, 1.499439e-26
 8.965421e-08, 0.000000e+00, 1.506356e-26
 4.724594e-06, 0.000000e+00, 1.495774e-25
 6.688138e-08, 0.000000e+00, 1.495546e-24
 8.445687e-08, 0.000000e+00, 1.873005e-21
 2.483290e-07, 0.000000e+00, 1.495580e-22
 1.935494e-02, 0.000000e+00, 1.683158e-20
 1.398792e-07, 0.000000e+00, 1.495340e-20
 6.219054e-02, 0.000000e+00, 5.123897e-18
 8.950274e-02, 0.000000e+00, 2.096502e-15
 6.854342e-02, 0.000000e+00, 4.197368e-13
 3.246096e-02, 0.000000e+00, 2.028181e-12
 6.984246e-02, 0.000000e+00, 3.629322e-11
 5.707574e-02, 0.000000e+00, 5.167416e-10
 7.980609e-02, 0.000000e+00, 5.262456e-09
 1.043057e-01, 0.000000e+00, 6.843770e-08
 1.260053e-01, 0.000000e+00, 5.955346e-07
 9.353686e-02, 0.000000e+00, 4.762430e-06
 6.969299e-02, 0.000000e+00, 3.045373e-05
** ... 11 like lines cut
*Trs, definition=USER
*Material, name=Mix_Agilus_VeroWhiteUltra_175100ppm
*Density
 1.172996e-09
*Depvar
  1,
*Expansion
 1.020000e-04, 4.000000e+01
 1.570000e-04, 8.000000e+01
*Hyperelastic, mooney-rivlin, test data input, moduli=LONG TERM, poisson=5.000e-01
*Uniaxial Test Data
 2.791694e-02, 4.000000e-03
 5.583389e-02, 8.000000e-03
 8.375083e-02, 1.200000e-02
 1.116678e-01, 1.600000e-02
 1.395847e-01, 2.000000e-02
 1.608852e-01, 2.333333e-02
 1.838045e-01, 2.666667e-02
 2.075427e-01, 3.000000e-02
 2.296023e-01, 3.333333e-02
 2.518929e-01, 3.666667e-02
 2.748772e-01, 4.000000e-02
 2.981016e-01, 4.333333e-02
 3.203894e-01, 4.666667e-02
 3.426871e-01, 5.000000e-02
 3.660046e-01, 5.333333e-02
 3.879889e-01, 5.666667e-02
 4.090567e-01, 6.000000e-02
 4.315286e-01, 6.333333e-02
 4.539321e-01, 6.666667e-02
 4.762549e-01, 7.000000e-02
** ... 9 like lines cut
*Viscoelastic, time=PRONY
 1.063050e-06, 0.000000e+00, 2.129748e-28
 2.053143e-07, 0.000000e+00, 3.284742e-27
 7.896868e-08, 0.000000e+00, 4.140328e-21
 9.593385e-08, 0.000000e+00, 4.778280e-20
 2.319965e-06, 0.000000e+00, 1.982366e-24
 5.842645e-08, 0.000000e+00, 1.982356e-23
 2.927244e-07, 0.000000e+00, 1.999309e-22
 2.337859e-02, 0.000000e+00, 3.376143e-20
 1.458798e-06, 0.000000e+00, 2.257270e-19
 4.579788e-02, 0.000000e+00, 2.595367e-18
 8.761244e-02, 0.000000e+00, 5.367251e-16
 6.830457e-02, 0.000000e+00, 8.081706e-14
 6.123380e-02, 0.000000e+00, 1.488640e-12
 6.586033e-02, 0.000000e+00, 2.926016e-11
 4.893893e-02, 0.000000e+00, 2.761501e-10
 8.193227e-02, 0.000000e+00, 3.354107e-09
 9.105121e-02, 0.000000e+00, 4.263634e-08
 1.181303e-01, 0.000000e+00, 4.091936e-07
 1.093789e-01, 0.000000e+00, 3.427671e-06
 5.982003e-02, 0.000000e+00, 2.420573e-05
** ... 11 like lines cut
*Trs, definition=USER
*Material, name=Mix_Agilus_VeroWhiteUltra_203800ppm
*Density
 1.171848e-09
*Depvar
  1,
*Expansion
 1.020000e-04, 4.000000e+01
 1.570000e-04, 8.000000e+01
*Hyperelastic, mooney-rivlin, test data input, moduli=LONG TERM, poisson=5.000e-01
*Uniaxial Test Data
 2.705845e-02, 4.000000e-03
 5.411690e-02, 8.000000e-03
 8.117535e-02, 1.200000e-02
 1.082338e-01, 1.600000e-02
 1.352922e-01, 2.000000e-02
 1.559337e-01, 2.333333e-02
 1.781533e-01, 2.666667e-02
 2.011878e-01, 3.000000e-02
 2.225860e-01, 3.333333e-02
 2.441807e-01, 3.666667e-02
 2.664498e-01, 4.000000e-02
 2.889750e-01, 4.333333e-02
 3.106022e-01, 4.666667e-02
 3.322158e-01, 5.000000e-02
 3.548318e-01, 5.333333e-02
 3.761495e-01, 5.666667e-02
 3.965508e-01, 6.000000e-02
 4.183292e-01, 6.333333e-02
 4.400451e-01, 6.666667e-02
 4.616956e-01, 7.000000e-02
** ... 9 like lines cut
*Viscoelastic, time=PRONY
 1.593929e-07, 0.000000e+00, 1.044733e-27
 3.959598e-06, 0.000000e+00, 3.317467e-27
 3.755071e-03, 0.000000e+00, 7.557406e-22
 1.811822e-02, 0.000000e+00, 2.669304e-25
 3.597524e-07, 0.000000e+00, 2.669232e-24
 3.540415e-07, 0.000000e+00, 2.670434e-23
 2.255565e-06, 0.000000e+00, 5.107002e-21
 6.144396e-02, 0.000000e+00, 2.123674e-17
 3.493538e-02, 0.000000e+00, 2.242303e-19
 7.877063e-02, 0.000000e+00, 2.354316e-15
 4.421620e-07, 0.000000e+00, 2.497524e-15
 7.429158e-02, 0.000000e+00, 1.682993e-13
 1.271543e-09, 0.000000e+00, 2.723990e-16
 8.006646e-02, 0.000000e+00, 5.215645e-12
 9.243010e-02, 0.000000e+00, 1.948064e-10
 1.801727e-10, 0.000000e+00, 2.680200e-13
 1.060798e-01, 0.000000e+00, 8.801242e-09
 1.254916e-01, 0.000000e+00, 1.823348e-07
 1.250077e-01, 0.000000e+00, 2.464441e-06
 6.389512e-02, 0.000000e+00, 2.362151e-05
** ... 11 like lines cut
*Trs, definition=USER
*Material, name=Mix_Agilus_VeroWhiteUltra_232400ppm
*Density
 1.170704e-09
*Depvar
  1,
*Expansion
 1.020000e-04, 4.000000e+01
 1.570000e-04, 8.000000e+01
*Hyperelastic, mooney-rivlin, test data input, moduli=LONG TERM, poisson=5.000e-01
*Uniaxial Test Data
 2.617735e-02, 4.000000e-03
 5.235470e-02, 8.000000e-03
 7.853204e-02, 1.200000e-02
 1.047094e-01, 1.600000e-02
 1.308867e-01, 2.000000e-02
 1.508518e-01, 2.333333e-02
 1.723534e-01, 2.666667e-02
 1.946655e-01, 3.000000e-02
 2.153850e-01, 3.333333e-02
 2.362654e-01, 3.666667e-02
 2.578005e-01, 4.000000e-02
 2.796081e-01, 4.333333e-02
 3.005573e-01, 4.666667e-02
 3.214687e-01, 5.000000e-02
 3.433648e-01, 5.333333e-02
 3.639984e-01, 5.666667e-02
 3.837155e-01, 6.000000e-02
 4.047823e-01, 6.333333e-02
 4.257923e-01, 6.666667e-02
 4.467529e-01, 7.000000e-02
** ... 9 like lines cut
*Viscoelastic, time=PRONY
 5.413979e-09, 0.000000e+00, 7.409397e-24
 4.965437e-12, 0.000000e+00, 1.335574e-24
 1.022619e-02, 0.000000e+00, 3.650480e-26
 7.884968e-03, 0.000000e+00, 8.670369e-21
 1.859255e-09, 0.000000e+00, 1.776979e-23
 2.455329e-02, 0.000000e+00, 5.033560e-19
 1.170345e-02, 0.000000e+00, 1.037827e-19
 1.168475e-02, 0.000000e+00, 8.080195e-18
 2.953576e-02, 0.000000e+00, 1.758747e-17
 5.820066e-02, 0.000000e+00, 3.481831e-16
 4.558295e-02, 0.000000e+00, 9.700657e-15
 1.886928e-02, 0.000000e+00, 9.494899e-15
 6.028603e-02, 0.000000e+00, 2.726618e-13
 8.455536e-02, 0.000000e+00, 4.852999e-12
 9.360235e-02, 0.000000e+00, 2.011506e-10
 1.121754e-08, 0.000000e+00, 3.801545e-13
 1.147858e-01, 0.000000e+00, 9.599000e-09
 9.555835e-02, 0.000000e+00, 1.942521e-07
 1.426731e-01, 0.000000e+00, 2.075303e-06
 1.740593e-04, 0.000000e+00, 3.650480e-09
** ... 11 like lines cut
*Trs, definition=USER
*Material, name=Mix_Agilus_VeroWhiteUltra_261100ppm
*Density
 1.169556e-09
*Depvar
  1,
*Expansion
 1.020000e-04, 4.000000e+01
 1.570000e-04, 8.000000e+01
*Hyperelastic, mooney-rivlin, test data input, moduli=LONG TERM, poisson=5.000e-01
*Uniaxial Test Data
 2.526733e-02, 4.000000e-03
 5.053466e-02, 8.000000e-03
 7.580198e-02, 1.200000e-02
 1.010693e-01, 1.600000e-02
 1.263366e-01, 2.000000e-02
 1.456031e-01, 2.333333e-02
 1.663631e-01, 2.666667e-02
 1.879292e-01, 3.000000e-02
 2.079476e-01, 3.333333e-02
 2.280904e-01, 3.666667e-02
 2.488674e-01, 4.000000e-02
 2.699337e-01, 4.333333e-02
 2.901826e-01, 4.666667e-02
 3.103689e-01, 5.000000e-02
 3.315215e-01, 5.333333e-02
 3.514484e-01, 5.666667e-02
 3.704590e-01, 6.000000e-02
 3.907907e-01, 6.333333e-02
 4.110718e-01, 6.666667e-02
 4.313197e-01, 7.000000e-02
** ... 9 like lines cut
*Viscoelastic, time=PRONY
 7.302915e-04, 0.000000e+00, 1.071010e-27
 7.287033e-12, 0.000000e+00, 1.478458e-23
 3.375156e-03, 0.000000e+00, 5.149015e-26
 7.903508e-12, 0.000000e+00, 6.469438e-23
 1.799891e-02, 0.000000e+00, 3.870364e-20
 1.076839e-10, 0.000000e+00, 3.060239e-19
 7.982014e-11, 0.000000e+00, 2.904627e-18
 2.309588e-03, 0.000000e+00, 3.702312e-20
 1.397931e-02, 0.000000e+00, 8.200780e-18
 3.342689e-02, 0.000000e+00, 1.157278e-18
 6.446444e-02, 0.000000e+00, 2.269385e-15
 5.493403e-02, 0.000000e+00, 9.662117e-17
 8.231905e-02, 0.000000e+00, 1.868610e-12
 7.078394e-02, 0.000000e+00, 6.434613e-14
 7.830200e-02, 0.000000e+00, 4.226041e-11
 7.314374e-02, 0.000000e+00, 8.781178e-10
 8.412300e-02, 0.000000e+00, 1.380496e-08
 9.303667e-02, 0.000000e+00, 1.663224e-07
 9.772658e-02, 0.000000e+00, 1.459383e-06
 6.357999e-02, 0.000000e+00, 9.030907e-06
** ... 11 like lines cut
*Trs, definition=USER
*Material, name=Mix_Agilus_VeroWhiteUltra_326000ppm
*Density
 1.166960e-09
*Depvar
  1,
*Expansion
 1.020000e-04, 4.000000e+01
 1.570000e-04, 8.000000e+01
*Hyperelastic, mooney-rivlin, test data input, moduli=LONG TERM, poisson=5.000e-01
*Uniaxial Test Data
 2.313723e-02, 4.000000e-03
 4.627446e-02, 8.000000e-03
 6.941169e-02, 1.200000e-02
 9.254892e-02, 1.600000e-02
 1.156862e-01, 2.000000e-02
 1.333175e-01, 2.333333e-02
 1.523415e-01, 2.666667e-02
 1.721615e-01, 3.000000e-02
 1.905389e-01, 3.333333e-02
 2.089549e-01, 3.666667e-02
 2.279574e-01, 4.000000e-02
 2.472888e-01, 4.333333e-02
 2.658986e-01, 4.666667e-02
 2.843875e-01, 5.000000e-02
 3.037997e-01, 5.333333e-02
 3.220725e-01, 5.666667e-02
 3.394293e-01, 6.000000e-02
 3.580404e-01, 6.333333e-02
 3.766152e-01, 6.666667e-02
 3.951951e-01, 7.000000e-02
** ... 9 like lines cut
*Viscoelastic, time=PRONY
 6.001670e-10, 0.000000e+00, 5.174376e-24
 1.921871e-07, 0.000000e+00, 1.175404e-26
 1.207846e-10, 0.000000e+00, 6.708818e-23
 1.487596e-10, 0.000000e+00, 1.161260e-24
 9.575845e-11, 0.000000e+00, 1.162332e-23
 9.133749e-11, 0.000000e+00, 3.082456e-22
 2.187375e-02, 0.000000e+00, 7.272035e-20
 2.462489e-02, 0.000000e+00, 8.982473e-19
 3.348462e-02, 0.000000e+00, 9.394375e-18
 3.679986e-02, 0.000000e+00, 9.458882e-17
 3.767299e-02, 0.000000e+00, 6.439335e-16
 4.998450e-02, 0.000000e+00, 4.033044e-15
 5.915955e-02, 0.000000e+00, 4.298291e-14
 7.106323e-02, 0.000000e+00, 6.452353e-13
 7.605202e-02, 0.000000e+00, 9.671478e-12
 7.052811e-02, 0.000000e+00, 1.338699e-10
 7.005291e-02, 0.000000e+00, 2.003443e-09
 7.753473e-02, 0.000000e+00, 2.680792e-08
 8.526223e-02, 0.000000e+00, 2.838220e-07
 8.106915e-02, 0.000000e+00, 2.275622e-06
** ... 11 like lines cut
*Trs, definition=USER
*Material, name=Mix_Agilus_VeroWhiteUltra_390900ppm
*Density
 1.164364e-09
*Depvar
  1,
*Expansion
 1.020000e-04, 4.000000e+01
 1.570000e-04, 8.000000e+01
*Hyperelastic, mooney-rivlin, test data input, moduli=LONG TERM, poisson=5.000e-01
*Uniaxial Test Data
 2.096538e-02, 4.000000e-03
 4.193077e-02, 8.000000e-03
 6.289615e-02, 1.200000e-02
 8.386153e-02, 1.600000e-02
 1.048269e-01, 2.000000e-02
 1.207910e-01, 2.333333e-02
 1.380451e-01, 2.666667e-02
 1.560846e-01, 3.000000e-02
 1.727889e-01, 3.333333e-02
 1.894444e-01, 3.666667e-02
 2.066376e-01, 4.000000e-02
 2.242001e-01, 4.333333e-02
 2.411387e-01, 4.666667e-02
 2.578968e-01, 5.000000e-02
 2.755344e-01, 5.333333e-02
 2.921209e-01, 5.666667e-02
 3.077913e-01, 6.000000e-02
 3.246482e-01, 6.333333e-02
 3.414832e-01, 6.666667e-02
 3.583625e-01, 7.000000e-02
** ... 9 like lines cut
*Viscoelastic, time=PRONY
 4.602681e-06, 0.000000e+00, 9.870059e-25
 5.565193e-07, 0.000000e+00, 2.024663e-22
 8.333173e-11, 0.000000e+00, 2.988064e-25
 1.370346e-07, 0.000000e+00, 3.029586e-24
 3.291638e-02, 0.000000e+00, 1.911793e-19
 4.024782e-08, 0.000000e+00, 4.914852e-17
 5.175230e-02, 0.000000e+00, 1.044960e-16
 4.381577e-02, 0.000000e+00, 5.505627e-18
 5.488004e-02, 0.000000e+00, 1.418815e-15
 2.403596e-05, 0.000000e+00, 1.004931e-15
 1.494902e-02, 0.000000e+00, 8.040964e-14
 9.846830e-03, 0.000000e+00, 2.965964e-15
 6.099569e-02, 0.000000e+00, 1.819312e-14
 7.285955e-02, 0.000000e+00, 3.675241e-13
 7.366759e-02, 0.000000e+00, 1.408637e-10
 8.095923e-02, 0.000000e+00, 5.857691e-12
 2.128609e-02, 0.000000e+00, 3.005023e-11
 7.282170e-02, 0.000000e+00, 2.247578e-09
 7.960867e-02, 0.000000e+00, 3.691829e-08
 8.744245e-02, 0.000000e+00, 5.035728e-07
** ... 11 like lines cut
*Trs, definition=USER
*Material, name=Mix_Agilus_VeroWhiteUltra_455900ppm
*Density
 1.161764e-09
*Depvar
  1,
*Expansion
 1.020000e-04, 4.000000e+01
 1.570000e-04, 8.000000e+01
*Hyperelastic, mooney-rivlin, test data input, moduli=LONG TERM, poisson=5.000e-01
*Uniaxial Test Data
 1.705926e-02, 4.000000e-03
 3.411851e-02, 8.000000e-03
 5.117777e-02, 1.200000e-02
 6.823703e-02, 1.600000e-02
 8.529628e-02, 2.000000e-02
 9.826186e-02, 2.333333e-02
 1.123326e-01, 2.666667e-02
 1.271700e-01, 3.000000e-02
 1.408652e-01, 3.333333e-02
 1.543541e-01, 3.666667e-02
 1.682933e-01, 4.000000e-02
 1.826743e-01, 4.333333e-02
 1.966072e-01, 4.666667e-02
 2.102525e-01, 5.000000e-02
 2.246987e-01, 5.333333e-02
 2.382520e-01, 5.666667e-02
 2.508896e-01, 6.000000e-02
 2.645914e-01, 6.333333e-02
 2.782975e-01, 6.666667e-02
 2.921180e-01, 7.000000e-02
** ... 9 like lines cut
*Viscoelastic, time=PRONY
 4.311534e-06, 0.000000e+00, 8.919196e-24
 1.005880e-05, 0.000000e+00, 8.769523e-23
 1.340547e-05, 0.000000e+00, 8.533680e-22
 2.363272e-07, 0.000000e+00, 3.399150e-21
 5.031964e-02, 0.000000e+00, 8.406999e-19
 2.504571e-08, 0.000000e+00, 9.059702e-22
 1.146593e-01, 0.000000e+00, 4.698628e-16
 2.602295e-02, 0.000000e+00, 1.112038e-17
 4.362294e-02, 0.000000e+00, 1.457305e-14
 4.227023e-02, 0.000000e+00, 5.066025e-14
 1.744591e-02, 0.000000e+00, 1.549929e-13
 5.457845e-03, 0.000000e+00, 3.105027e-14
 3.309049e-02, 0.000000e+00, 1.617497e-12
 4.304136e-02, 0.000000e+00, 4.154892e-13
 4.330320e-02, 0.000000e+00, 4.372253e-12
 7.202322e-02, 0.000000e+00, 2.891360e-11
 7.357150e-02, 0.000000e+00, 2.660502e-10
 4.587510e-02, 0.000000e+00, 5.720795e-09
 6.329237e-02, 0.000000e+00, 8.941343e-09
 9.374097e-02, 0.000000e+00, 3.382509e-07
** ... 11 like lines cut
*Trs, definition=USER
*Material, name=Mix_Agilus_VeroWhiteUltra_520800ppm
*Density
 1.159168e-09
*Depvar
  1,
*Expansion
 1.020000e-04, 4.000000e+01
 1.570000e-04, 8.000000e+01
*Hyperelastic, mooney-rivlin, test data input, moduli=LONG TERM, poisson=5.000e-01
*Uniaxial Test Data
 1.283018e-02, 4.000000e-03
 2.566036e-02, 8.000000e-03
 3.849054e-02, 1.200000e-02
 5.132072e-02, 1.600000e-02
 6.415090e-02, 2.000000e-02
 7.387004e-02, 2.333333e-02
 8.449425e-02, 2.666667e-02
 9.586482e-02, 3.000000e-02
 1.063020e-01, 3.333333e-02
 1.163627e-01, 3.666667e-02
 1.267789e-01, 4.000000e-02
 1.377153e-01, 4.333333e-02
 1.483939e-01, 4.666667e-02
 1.586691e-01, 5.000000e-02
 1.696599e-01, 5.333333e-02
 1.799294e-01, 5.666667e-02
 1.892834e-01, 6.000000e-02
 1.995693e-01, 6.333333e-02
 2.098876e-01, 6.666667e-02
 2.203965e-01, 7.000000e-02
** ... 9 like lines cut
*Viscoelastic, time=PRONY
 2.990189e-06, 0.000000e+00, 2.468220e-23
 2.053203e-06, 0.000000e+00, 3.649633e-22
 9.554941e-03, 0.000000e+00, 8.940261e-20
 2.168452e-08, 0.000000e+00, 3.244990e-23
 5.016099e-02, 0.000000e+00, 3.230773e-18
 9.773536e-02, 0.000000e+00, 2.005643e-16
 3.351411e-07, 0.000000e+00, 2.664305e-16
 5.812541e-08, 0.000000e+00, 2.757176e-17
 9.487721e-02, 0.000000e+00, 3.601882e-14
 1.352813e-07, 0.000000e+00, 1.335654e-13
 1.552567e-02, 0.000000e+00, 4.167104e-15
 2.865095e-02, 0.000000e+00, 4.521333e-15
 6.453591e-03, 0.000000e+00, 6.839435e-13
 6.008406e-02, 0.000000e+00, 4.773655e-13
 7.491952e-02, 0.000000e+00, 3.228165e-12
 8.374401e-02, 0.000000e+00, 3.228328e-11
 1.462519e-01, 0.000000e+00, 1.125834e-09
 3.508070e-02, 0.000000e+00, 8.576879e-08
 6.166448e-02, 0.000000e+00, 3.713715e-07
 2.641774e-02, 0.000000e+00, 3.228146e-07
** ... 11 like lines cut
*Trs, definition=USER
*Material, name=Mix_Agilus_VeroWhiteUltra_585700ppm
*Density
 1.156572e-09
*Depvar
  1,
*Expansion
 1.020000e-04, 4.000000e+01
 1.570000e-04, 8.000000e+01
*Hyperelastic, mooney-rivlin, test data input, moduli=LONG TERM, poisson=5.000e-01
*Uniaxial Test Data
 9.098496e-03, 4.000000e-03
 1.819699e-02, 8.000000e-03
 2.729549e-02, 1.200000e-02
 3.639398e-02, 1.600000e-02
 4.549248e-02, 2.000000e-02
 5.234701e-02, 2.333333e-02
 5.993006e-02, 2.666667e-02
 6.824150e-02, 3.000000e-02
 7.580389e-02, 3.333333e-02
 8.283960e-02, 3.666667e-02
 9.014703e-02, 4.000000e-02
 9.804408e-02, 4.333333e-02
 1.058511e-01, 4.666667e-02
 1.131526e-01, 5.000000e-02
 1.210944e-01, 5.333333e-02
 1.284663e-01, 5.666667e-02
 1.349229e-01, 6.000000e-02
 1.421946e-01, 6.333333e-02
 1.495237e-01, 6.666667e-02
 1.571104e-01, 7.000000e-02
** ... 9 like lines cut
*Viscoelastic, time=PRONY
 1.513471e-05, 0.000000e+00, 5.688764e-20
 3.176331e-10, 0.000000e+00, 1.152118e-18
 1.959072e-11, 0.000000e+00, 1.702474e-21
 4.627022e-02, 0.000000e+00, 4.406933e-18
 3.869241e-13, 0.000000e+00, 1.518466e-21
 6.864440e-10, 0.000000e+00, 3.200749e-16
 1.199012e-01, 0.000000e+00, 2.344675e-16
 5.281611e-09, 0.000000e+00, 1.503582e-18
 5.577288e-13, 0.000000e+00, 1.506392e-17
 8.199762e-12, 0.000000e+00, 2.008574e-14
 1.926931e-01, 0.000000e+00, 7.574357e-14
 1.816323e-11, 0.000000e+00, 1.878056e-10
 8.067612e-02, 0.000000e+00, 9.759946e-12
 6.678265e-02, 0.000000e+00, 1.084608e-09
 7.082663e-02, 0.000000e+00, 1.503582e-11
 6.251725e-02, 0.000000e+00, 1.504534e-10
 9.047553e-03, 0.000000e+00, 8.756658e-09
 9.935146e-02, 0.000000e+00, 1.503589e-08
 5.628940e-02, 0.000000e+00, 5.704452e-06
 6.913860e-02, 0.000000e+00, 1.503582e-06
** ... 11 like lines cut
*Trs, definition=USER
*Material, name=Mix_Agilus_VeroWhiteUltra_650600ppm
*Density
 1.153976e-09
*Depvar
  1,
*Expansion
 1.020000e-04, 4.000000e+01
 1.570000e-04, 8.000000e+01
*Hyperelastic, mooney-rivlin, test data input, moduli=LONG TERM, poisson=5.000e-01
*Uniaxial Test Data
 5.809125e-03, 4.000000e-03
 1.161825e-02, 8.000000e-03
 1.742738e-02, 1.200000e-02
 2.323650e-02, 1.600000e-02
 2.904563e-02, 2.000000e-02
 3.337509e-02, 2.333333e-02
 3.827743e-02, 2.666667e-02
 4.389235e-02, 3.000000e-02
 4.892070e-02, 3.333333e-02
 5.328993e-02, 3.666667e-02
 5.785713e-02, 4.000000e-02
 6.307502e-02, 4.333333e-02
 6.835090e-02, 4.666667e-02
 7.303114e-02, 5.000000e-02
 7.828537e-02, 5.333333e-02
 8.310300e-02, 5.666667e-02
 8.700568e-02, 6.000000e-02
 9.162049e-02, 6.333333e-02
 9.631459e-02, 6.666667e-02
 1.013256e-01, 7.000000e-02
** ... 9 like lines cut
*Viscoelastic, time=PRONY
 3.262776e-08, 0.000000e+00, 5.989640e-20
 1.102943e-02, 0.000000e+00, 1.235547e-18
 5.433016e-12, 0.000000e+00, 9.256448e-17
 9.778199e-10, 0.000000e+00, 3.380035e-17
 1.377528e-10, 0.000000e+00, 3.852517e-18
 7.524912e-02, 0.000000e+00, 1.522972e-15
 1.442455e-07, 0.000000e+00, 2.065258e-18
 7.009402e-02, 0.000000e+00, 7.085244e-17
 5.019981e-02, 0.000000e+00, 1.485427e-14
 8.906490e-06, 0.000000e+00, 1.007568e-15
 1.958455e-02, 0.000000e+00, 7.538493e-13
 8.262728e-02, 0.000000e+00, 1.007568e-13
 7.325975e-02, 0.000000e+00, 1.007568e-12
 9.613026e-02, 0.000000e+00, 1.007705e-11
 8.800579e-02, 0.000000e+00, 1.007663e-10
 8.945434e-02, 0.000000e+00, 1.007617e-09
 7.448472e-02, 0.000000e+00, 1.007568e-08
 5.930289e-02, 0.000000e+00, 1.011514e-07
 5.862745e-02, 0.000000e+00, 1.489156e-06
 5.509562e-02, 0.000000e+00, 2.780217e-05
** ... 11 like lines cut
*Trs, definition=USER
*Material, name=Mix_Agilus_VeroWhiteUltra_715600ppm
*Density
 1.151376e-09
*Depvar
  1,
*Expansion
 1.020000e-04, 4.000000e+01
 1.570000e-04, 8.000000e+01
*Hyperelastic, mooney-rivlin, test data input, moduli=LONG TERM, poisson=5.000e-01
*Uniaxial Test Data
 3.235254e-03, 4.000000e-03
 6.470509e-03, 8.000000e-03
 9.705763e-03, 1.200000e-02
 1.294102e-02, 1.600000e-02
 1.617627e-02, 2.000000e-02
 1.852991e-02, 2.333333e-02
 2.133466e-02, 2.666667e-02
 2.483960e-02, 3.000000e-02
 2.788511e-02, 3.333333e-02
 3.016787e-02, 3.666667e-02
 3.259088e-02, 4.000000e-02
 3.571239e-02, 4.333333e-02
 3.900768e-02, 4.666667e-02
 4.163683e-02, 5.000000e-02
 4.478808e-02, 5.333333e-02
 4.760710e-02, 5.666667e-02
 4.951135e-02, 6.000000e-02
 5.204718e-02, 6.333333e-02
 5.467948e-02, 6.666667e-02
 5.767499e-02, 7.000000e-02
** ... 9 like lines cut
*Viscoelastic, time=PRONY
 7.309777e-07, 0.000000e+00, 3.373590e-23
 3.529503e-09, 0.000000e+00, 2.237359e-22
 5.616955e-02, 0.000000e+00, 1.213653e-15
 4.354336e-10, 0.000000e+00, 7.449439e-15
 6.217904e-02, 0.000000e+00, 3.266712e-16
 1.120514e-09, 0.000000e+00, 7.457615e-16
 1.056492e-09, 0.000000e+00, 2.386347e-13
 1.070330e-07, 0.000000e+00, 1.574664e-16
 4.163438e-07, 0.000000e+00, 9.217128e-15
 1.885297e-01, 0.000000e+00, 1.056040e-13
 3.106575e-06, 0.000000e+00, 2.682238e-12
 1.470476e-07, 0.000000e+00, 5.405415e-09
 1.763845e-01, 0.000000e+00, 1.213666e-11
 1.438652e-01, 0.000000e+00, 3.532675e-10
 1.798391e-01, 0.000000e+00, 1.884150e-08
 2.677192e-07, 0.000000e+00, 5.270863e-06
 2.186380e-07, 0.000000e+00, 4.649175e-06
 6.572770e-08, 0.000000e+00, 1.213676e-06
 1.093715e-01, 0.000000e+00, 1.213653e-05
 4.263304e-07, 0.000000e+00, 1.213658e-04
** ... 11 like lines cut
*Trs, definition=USER
*Material, name=Mix_Agilus_VeroWhiteUltra_780500ppm
*Density
 1.148780e-09
*Depvar
  1,
*Expansion
 1.020000e-04, 4.000000e+01
 1.570000e-04, 8.000000e+01
*Hyperelastic, mooney-rivlin, test data input, moduli=LONG TERM, poisson=5.000e-01
*Uniaxial Test Data
 2.043719e-03, 4.000000e-03
 4.087438e-03, 8.000000e-03
 6.131156e-03, 1.200000e-02
 8.174875e-03, 1.600000e-02
 1.021859e-02, 2.000000e-02
 1.165755e-02, 2.333333e-02
 1.349125e-02, 2.666667e-02
 1.601941e-02, 3.000000e-02
 1.814700e-02, 3.333333e-02
 1.946386e-02, 3.666667e-02
 2.089425e-02, 4.000000e-02
 2.304526e-02, 4.333333e-02
 2.542368e-02, 4.666667e-02
 2.710330e-02, 5.000000e-02
 2.928100e-02, 5.333333e-02
 3.117480e-02, 5.666667e-02
 3.215390e-02, 6.000000e-02
 3.372730e-02, 6.333333e-02
 3.540512e-02, 6.666667e-02
 3.746758e-02, 7.000000e-02
** ... 9 like lines cut
*Viscoelastic, time=PRONY
 4.285885e-03, 0.000000e+00, 1.727856e-17
 2.540155e-07, 0.000000e+00, 5.832687e-20
 1.165916e-03, 0.000000e+00, 1.914298e-16
 1.891912e-12, 0.000000e+00, 4.721428e-19
 9.027931e-02, 0.000000e+00, 3.243780e-14
 8.208125e-02, 0.000000e+00, 3.311986e-13
 9.878662e-02, 0.000000e+00, 3.313994e-11
 4.164715e-02, 0.000000e+00, 4.721209e-15
 1.631904e-13, 0.000000e+00, 4.721213e-14
 1.682661e-02, 0.000000e+00, 9.979675e-13
 9.087493e-02, 0.000000e+00, 4.721274e-12
 3.369467e-02, 0.000000e+00, 1.423437e-10
 1.058921e-01, 0.000000e+00, 4.722127e-10
 1.103495e-01, 0.000000e+00, 4.722564e-09
 9.454851e-02, 0.000000e+00, 4.730050e-08
 7.480010e-02, 0.000000e+00, 4.721910e-07
 5.298265e-02, 0.000000e+00, 4.721563e-06
 3.373660e-02, 0.000000e+00, 4.721433e-05
 2.283913e-02, 0.000000e+00, 5.007978e-04
 1.622729e-02, 0.000000e+00, 4.735826e-03
** ... 11 like lines cut
*Trs, definition=USER
*Material, name=Mix_Agilus_VeroWhiteUltra_845400ppm
*Density
 1.146184e-09
*Depvar
  1,
*Expansion
 1.020000e-04, 4.000000e+01
 1.570000e-04, 8.000000e+01
*Hyperelastic, mooney-rivlin, test data input, moduli=LONG TERM, poisson=5.000e-01
*Uniaxial Test Data
 1.250140e-03, 4.000000e-03
 2.500280e-03, 8.000000e-03
 3.750420e-03, 1.200000e-02
 5.000560e-03, 1.600000e-02
 6.250700e-03, 2.000000e-02
 7.080472e-03, 2.333333e-02
 8.267432e-03, 2.666667e-02
 1.014504e-02, 3.000000e-02
 1.166128e-02, 3.333333e-02
 1.233484e-02, 3.666667e-02
 1.310413e-02, 4.000000e-02
 1.460878e-02, 4.333333e-02
 1.637654e-02, 4.666667e-02
 1.742377e-02, 5.000000e-02
 1.895308e-02, 5.333333e-02
 2.023066e-02, 5.666667e-02
 2.059361e-02, 6.000000e-02
 2.152601e-02, 6.333333e-02
 2.256814e-02, 6.666667e-02
 2.400918e-02, 7.000000e-02
** ... 9 like lines cut
*Viscoelastic, time=PRONY
 2.305432e-07, 0.000000e+00, 3.795918e-18
 3.474061e-05, 0.000000e+00, 3.828648e-17
 1.478291e-10, 0.000000e+00, 5.741009e-16
 2.242272e-11, 0.000000e+00, 3.296253e-11
 1.254955e-09, 0.000000e+00, 3.785601e-14
 2.006503e-01, 0.000000e+00, 6.864630e-12
 8.015555e-05, 0.000000e+00, 3.786100e-12
 2.303576e-11, 0.000000e+00, 4.078752e-11
 2.294369e-01, 0.000000e+00, 3.785594e-10
 1.425560e-01, 0.000000e+00, 6.929733e-09
 1.096668e-01, 0.000000e+00, 1.012876e-07
 6.437219e-02, 0.000000e+00, 5.387999e-07
 1.178913e-01, 0.000000e+00, 3.785595e-06
 9.513314e-02, 0.000000e+00, 7.352782e-05
 2.196094e-08, 0.000000e+00, 3.902061e+00
 3.585327e-02, 0.000000e+00, 3.785609e-03
 6.537832e-08, 0.000000e+00, 3.785701e-02
 2.182223e-06, 0.000000e+00, 3.803751e-01
 3.901591e-03, 0.000000e+00, 3.785971e+00
 1.301451e-08, 0.000000e+00, 3.800823e+01
** ... 11 like lines cut
*Trs, definition=USER
**
***************************************************************************
